{
   "completed_at" : "20200323T045845Z",
   "completed_status" : "Success",
   "current_step" : 8,
   "description" : "Building 3",
   "eplusout_err" : "Program Version,EnergyPlus, Version 9.1.0-fafb9d5652, YMD=2020.03.22 22:58,\n   ** Warning ** Timestep: Requested number (1) is less than the suggested minimum of 4.\n   **   ~~~   ** Please see entry for Timestep in Input/Output Reference for discussion of considerations.\n   ************* Beginning Zone Sizing Calculations\n   ** Warning ** ProcessScheduleInput: Schedule:Day:Interval=\"ZONE OFFICE WHOLEBUILDING - SM OFFICE A  - STORY GROUND PSZ-AC OCC SCH DEFAULT\", Blank Schedule Type Limits Name input -- will not be validated.\n   ** Warning ** ProcessScheduleInput: Schedule:Day:Interval=\"ZONE OFFICE WHOLEBUILDING - SM OFFICE A  - STORY GROUND PSZ-AC OCC SCH FRIDAY\", Blank Schedule Type Limits Name input -- will not be validated.\n   ** Warning ** ProcessScheduleInput: Schedule:Day:Interval=\"ZONE OFFICE WHOLEBUILDING - SM OFFICE A  - STORY GROUND PSZ-AC OCC SCH SUMMER DESIGN DAY\", Blank Schedule Type Limits Name input -- will not be validated.\n   ** Warning ** ProcessScheduleInput: Schedule:Day:Interval=\"ZONE OFFICE WHOLEBUILDING - SM OFFICE A  - STORY GROUND PSZ-AC OCC SCH SUNDAY\", Blank Schedule Type Limits Name input -- will not be validated.\n   ** Warning ** ProcessScheduleInput: Schedule:Day:Interval=\"ZONE OFFICE WHOLEBUILDING - SM OFFICE A  - STORY GROUND PSZ-AC OCC SCH WINTER DESIGN DAY\", Blank Schedule Type Limits Name input -- will not be validated.\n   ** Warning ** ProcessScheduleInput: Schedule:Day:Interval=\"ZONE OFFICE WHOLEBUILDING - SM OFFICE A END_A - STORY GROUND PSZ-AC OCC SCH DEFAULT\", Blank Schedule Type Limits Name input -- will not be validated.\n   ** Warning ** ProcessScheduleInput: Schedule:Day:Interval=\"ZONE OFFICE WHOLEBUILDING - SM OFFICE A END_A - STORY GROUND PSZ-AC OCC SCH FRIDAY\", Blank Schedule Type Limits Name input -- will not be validated.\n   ** Warning ** ProcessScheduleInput: Schedule:Day:Interval=\"ZONE OFFICE WHOLEBUILDING - SM OFFICE A END_A - STORY GROUND PSZ-AC OCC SCH SUMMER DESIGN DAY\", Blank Schedule Type Limits Name input -- will not be validated.\n   ** Warning ** ProcessScheduleInput: Schedule:Day:Interval=\"ZONE OFFICE WHOLEBUILDING - SM OFFICE A END_A - STORY GROUND PSZ-AC OCC SCH SUNDAY\", Blank Schedule Type Limits Name input -- will not be validated.\n   ** Warning ** ProcessScheduleInput: Schedule:Day:Interval=\"ZONE OFFICE WHOLEBUILDING - SM OFFICE A END_A - STORY GROUND PSZ-AC OCC SCH WINTER DESIGN DAY\", Blank Schedule Type Limits Name input -- will not be validated.\n   ** Warning ** ProcessScheduleInput: Schedule:Day:Interval=\"ZONE OFFICE WHOLEBUILDING - SM OFFICE A END_B - STORY GROUND PSZ-AC OCC SCH DEFAULT\", Blank Schedule Type Limits Name input -- will not be validated.\n   ** Warning ** ProcessScheduleInput: Schedule:Day:Interval=\"ZONE OFFICE WHOLEBUILDING - SM OFFICE A END_B - STORY GROUND PSZ-AC OCC SCH FRIDAY\", Blank Schedule Type Limits Name input -- will not be validated.\n   ** Warning ** ProcessScheduleInput: Schedule:Day:Interval=\"ZONE OFFICE WHOLEBUILDING - SM OFFICE A END_B - STORY GROUND PSZ-AC OCC SCH SUMMER DESIGN DAY\", Blank Schedule Type Limits Name input -- will not be validated.\n   ** Warning ** ProcessScheduleInput: Schedule:Day:Interval=\"ZONE OFFICE WHOLEBUILDING - SM OFFICE A END_B - STORY GROUND PSZ-AC OCC SCH SUNDAY\", Blank Schedule Type Limits Name input -- will not be validated.\n   ** Warning ** ProcessScheduleInput: Schedule:Day:Interval=\"ZONE OFFICE WHOLEBUILDING - SM OFFICE A END_B - STORY GROUND PSZ-AC OCC SCH WINTER DESIGN DAY\", Blank Schedule Type Limits Name input -- will not be validated.\n   ** Warning ** ProcessScheduleInput: Schedule:Day:Interval=\"ZONE OFFICE WHOLEBUILDING - SM OFFICE B  - STORY GROUND PSZ-AC OCC SCH DEFAULT\", Blank Schedule Type Limits Name input -- will not be validated.\n   ** Warning ** ProcessScheduleInput: Schedule:Day:Interval=\"ZONE OFFICE WHOLEBUILDING - SM OFFICE B  - STORY GROUND PSZ-AC OCC SCH FRIDAY\", Blank Schedule Type Limits Name input -- will not be validated.\n   ** Warning ** ProcessScheduleInput: Schedule:Day:Interval=\"ZONE OFFICE WHOLEBUILDING - SM OFFICE B  - STORY GROUND PSZ-AC OCC SCH SUMMER DESIGN DAY\", Blank Schedule Type Limits Name input -- will not be validated.\n   ** Warning ** ProcessScheduleInput: Schedule:Day:Interval=\"ZONE OFFICE WHOLEBUILDING - SM OFFICE B  - STORY GROUND PSZ-AC OCC SCH SUNDAY\", Blank Schedule Type Limits Name input -- will not be validated.\n   ** Warning ** ProcessScheduleInput: Schedule:Day:Interval=\"ZONE OFFICE WHOLEBUILDING - SM OFFICE B  - STORY GROUND PSZ-AC OCC SCH WINTER DESIGN DAY\", Blank Schedule Type Limits Name input -- will not be validated.\n   ** Warning ** ProcessScheduleInput: Schedule:Day:Interval=\"ZONE OFFICE WHOLEBUILDING - SM OFFICE B END_A - STORY GROUND PSZ-AC OCC SCH DEFAULT\", Blank Schedule Type Limits Name input -- will not be validated.\n   ** Warning ** ProcessScheduleInput: Schedule:Day:Interval=\"ZONE OFFICE WHOLEBUILDING - SM OFFICE B END_A - STORY GROUND PSZ-AC OCC SCH FRIDAY\", Blank Schedule Type Limits Name input -- will not be validated.\n   ** Warning ** ProcessScheduleInput: Schedule:Day:Interval=\"ZONE OFFICE WHOLEBUILDING - SM OFFICE B END_A - STORY GROUND PSZ-AC OCC SCH SUMMER DESIGN DAY\", Blank Schedule Type Limits Name input -- will not be validated.\n   ** Warning ** ProcessScheduleInput: Schedule:Day:Interval=\"ZONE OFFICE WHOLEBUILDING - SM OFFICE B END_A - STORY GROUND PSZ-AC OCC SCH SUNDAY\", Blank Schedule Type Limits Name input -- will not be validated.\n   ** Warning ** ProcessScheduleInput: Schedule:Day:Interval=\"ZONE OFFICE WHOLEBUILDING - SM OFFICE B END_A - STORY GROUND PSZ-AC OCC SCH WINTER DESIGN DAY\", Blank Schedule Type Limits Name input -- will not be validated.\n   ** Warning ** ProcessScheduleInput: Schedule:Day:Interval=\"ZONE OFFICE WHOLEBUILDING - SM OFFICE B END_B - STORY GROUND PSZ-AC OCC SCH DEFAULT\", Blank Schedule Type Limits Name input -- will not be validated.\n   ** Warning ** ProcessScheduleInput: Schedule:Day:Interval=\"ZONE OFFICE WHOLEBUILDING - SM OFFICE B END_B - STORY GROUND PSZ-AC OCC SCH FRIDAY\", Blank Schedule Type Limits Name input -- will not be validated.\n   ** Warning ** ProcessScheduleInput: Schedule:Day:Interval=\"ZONE OFFICE WHOLEBUILDING - SM OFFICE B END_B - STORY GROUND PSZ-AC OCC SCH SUMMER DESIGN DAY\", Blank Schedule Type Limits Name input -- will not be validated.\n   ** Warning ** ProcessScheduleInput: Schedule:Day:Interval=\"ZONE OFFICE WHOLEBUILDING - SM OFFICE B END_B - STORY GROUND PSZ-AC OCC SCH SUNDAY\", Blank Schedule Type Limits Name input -- will not be validated.\n   ** Warning ** ProcessScheduleInput: Schedule:Day:Interval=\"ZONE OFFICE WHOLEBUILDING - SM OFFICE B END_B - STORY GROUND PSZ-AC OCC SCH WINTER DESIGN DAY\", Blank Schedule Type Limits Name input -- will not be validated.\n   ** Warning ** ProcessScheduleInput: Schedule:Day:Interval=\"ZONE OFFICE WHOLEBUILDING - SM OFFICE C  - STORY GROUND PSZ-AC OCC SCH DEFAULT\", Blank Schedule Type Limits Name input -- will not be validated.\n   ** Warning ** ProcessScheduleInput: Schedule:Day:Interval=\"ZONE OFFICE WHOLEBUILDING - SM OFFICE C  - STORY GROUND PSZ-AC OCC SCH FRIDAY\", Blank Schedule Type Limits Name input -- will not be validated.\n   ** Warning ** ProcessScheduleInput: Schedule:Day:Interval=\"ZONE OFFICE WHOLEBUILDING - SM OFFICE C  - STORY GROUND PSZ-AC OCC SCH SUMMER DESIGN DAY\", Blank Schedule Type Limits Name input -- will not be validated.\n   ** Warning ** ProcessScheduleInput: Schedule:Day:Interval=\"ZONE OFFICE WHOLEBUILDING - SM OFFICE C  - STORY GROUND PSZ-AC OCC SCH SUNDAY\", Blank Schedule Type Limits Name input -- will not be validated.\n   ** Warning ** ProcessScheduleInput: Schedule:Day:Interval=\"ZONE OFFICE WHOLEBUILDING - SM OFFICE C  - STORY GROUND PSZ-AC OCC SCH WINTER DESIGN DAY\", Blank Schedule Type Limits Name input -- will not be validated.\n   ** Warning ** ProcessScheduleInput: Schedule:Day:Interval=\"ZONE OFFICE WHOLEBUILDING - SM OFFICE C END_A - STORY GROUND PSZ-AC OCC SCH DEFAULT\", Blank Schedule Type Limits Name input -- will not be validated.\n   ** Warning ** ProcessScheduleInput: Schedule:Day:Interval=\"ZONE OFFICE WHOLEBUILDING - SM OFFICE C END_A - STORY GROUND PSZ-AC OCC SCH FRIDAY\", Blank Schedule Type Limits Name input -- will not be validated.\n   ** Warning ** ProcessScheduleInput: Schedule:Day:Interval=\"ZONE OFFICE WHOLEBUILDING - SM OFFICE C END_A - STORY GROUND PSZ-AC OCC SCH SUMMER DESIGN DAY\", Blank Schedule Type Limits Name input -- will not be validated.\n   ** Warning ** ProcessScheduleInput: Schedule:Day:Interval=\"ZONE OFFICE WHOLEBUILDING - SM OFFICE C END_A - STORY GROUND PSZ-AC OCC SCH SUNDAY\", Blank Schedule Type Limits Name input -- will not be validated.\n   ** Warning ** ProcessScheduleInput: Schedule:Day:Interval=\"ZONE OFFICE WHOLEBUILDING - SM OFFICE C END_A - STORY GROUND PSZ-AC OCC SCH WINTER DESIGN DAY\", Blank Schedule Type Limits Name input -- will not be validated.\n   ** Warning ** ProcessScheduleInput: Schedule:Day:Interval=\"ZONE OFFICE WHOLEBUILDING - SM OFFICE C END_B - STORY GROUND PSZ-AC OCC SCH DEFAULT\", Blank Schedule Type Limits Name input -- will not be validated.\n   ** Warning ** ProcessScheduleInput: Schedule:Day:Interval=\"ZONE OFFICE WHOLEBUILDING - SM OFFICE C END_B - STORY GROUND PSZ-AC OCC SCH FRIDAY\", Blank Schedule Type Limits Name input -- will not be validated.\n   ** Warning ** ProcessScheduleInput: Schedule:Day:Interval=\"ZONE OFFICE WHOLEBUILDING - SM OFFICE C END_B - STORY GROUND PSZ-AC OCC SCH SUMMER DESIGN DAY\", Blank Schedule Type Limits Name input -- will not be validated.\n   ** Warning ** ProcessScheduleInput: Schedule:Day:Interval=\"ZONE OFFICE WHOLEBUILDING - SM OFFICE C END_B - STORY GROUND PSZ-AC OCC SCH SUNDAY\", Blank Schedule Type Limits Name input -- will not be validated.\n   ** Warning ** ProcessScheduleInput: Schedule:Day:Interval=\"ZONE OFFICE WHOLEBUILDING - SM OFFICE C END_B - STORY GROUND PSZ-AC OCC SCH WINTER DESIGN DAY\", Blank Schedule Type Limits Name input -- will not be validated.\n   ** Warning ** ProcessScheduleInput: Schedule:Year=\"ZONE OFFICE WHOLEBUILDING - SM OFFICE A  - STORY GROUND PSZ-AC OCC SCH\", Blank Schedule Type Limits Name input -- will not be validated.\n   ** Warning ** ProcessScheduleInput: Schedule:Year=\"ZONE OFFICE WHOLEBUILDING - SM OFFICE A END_A - STORY GROUND PSZ-AC OCC SCH\", Blank Schedule Type Limits Name input -- will not be validated.\n   ** Warning ** ProcessScheduleInput: Schedule:Year=\"ZONE OFFICE WHOLEBUILDING - SM OFFICE A END_B - STORY GROUND PSZ-AC OCC SCH\", Blank Schedule Type Limits Name input -- will not be validated.\n   ** Warning ** ProcessScheduleInput: Schedule:Year=\"ZONE OFFICE WHOLEBUILDING - SM OFFICE B  - STORY GROUND PSZ-AC OCC SCH\", Blank Schedule Type Limits Name input -- will not be validated.\n   ** Warning ** ProcessScheduleInput: Schedule:Year=\"ZONE OFFICE WHOLEBUILDING - SM OFFICE B END_A - STORY GROUND PSZ-AC OCC SCH\", Blank Schedule Type Limits Name input -- will not be validated.\n   ** Warning ** ProcessScheduleInput: Schedule:Year=\"ZONE OFFICE WHOLEBUILDING - SM OFFICE B END_B - STORY GROUND PSZ-AC OCC SCH\", Blank Schedule Type Limits Name input -- will not be validated.\n   ** Warning ** ProcessScheduleInput: Schedule:Year=\"ZONE OFFICE WHOLEBUILDING - SM OFFICE C  - STORY GROUND PSZ-AC OCC SCH\", Blank Schedule Type Limits Name input -- will not be validated.\n   ** Warning ** ProcessScheduleInput: Schedule:Year=\"ZONE OFFICE WHOLEBUILDING - SM OFFICE C END_A - STORY GROUND PSZ-AC OCC SCH\", Blank Schedule Type Limits Name input -- will not be validated.\n   ** Warning ** ProcessScheduleInput: Schedule:Year=\"ZONE OFFICE WHOLEBUILDING - SM OFFICE C END_B - STORY GROUND PSZ-AC OCC SCH\", Blank Schedule Type Limits Name input -- will not be validated.\n   ** Warning ** ProcessScheduleInput: Schedule:Constant=\"ALWAYS OFF DISCRETE\", Blank Schedule Type Limits Name input -- will not be validated.\n   ** Warning ** ProcessScheduleInput: Schedule:Constant=\"ALWAYS ON CONTINUOUS\", Blank Schedule Type Limits Name input -- will not be validated.\n   ** Warning ** CheckUsedConstructions: There are 10 nominally unused constructions in input.\n   **   ~~~   ** For explicit details on each unused construction, use Output:Diagnostics,DisplayExtraWarnings;\n   ** Warning ** GetInternalHeatGains: ElectricEquipment Combination of ZoneList and Object Name generate a name too long.\n   **   ~~~   ** Object Name=\"OFFICE WHOLEBUILDING - SM OFFICE ELEC EQUIP\".\n   **   ~~~   ** ZoneList/Zone Name=\"ZONE OFFICE WHOLEBUILDING - SM OFFICE A END_A - STORY GROUND\".\n   **   ~~~   ** Item length=[103] > Maximum Length=[100]. You may need to shorten the names.\n   **   ~~~   ** Shortening the Object Name by [4] characters will assure uniqueness for this ZoneList.\n   **   ~~~   ** name that will be used (may be needed in reporting)=\"ZONE OFFICE WHOLEBUILDING - SM OFFICE A END_A - STORY GROUND OFFICE WHOLEBUILDING - SM OFFICE ELEC EQUIP\".\n   ** Warning ** GetInternalHeatGains: ElectricEquipment Combination of ZoneList and Object Name generate a name too long.\n   **   ~~~   ** Object Name=\"OFFICE WHOLEBUILDING - SM OFFICE ELEC EQUIP\".\n   **   ~~~   ** ZoneList/Zone Name=\"ZONE OFFICE WHOLEBUILDING - SM OFFICE A END_B - STORY GROUND\".\n   **   ~~~   ** Item length=[103] > Maximum Length=[100]. You may need to shorten the names.\n   **   ~~~   ** Shortening the Object Name by [4] characters will assure uniqueness for this ZoneList.\n   **   ~~~   ** name that will be used (may be needed in reporting)=\"ZONE OFFICE WHOLEBUILDING - SM OFFICE A END_B - STORY GROUND OFFICE WHOLEBUILDING - SM OFFICE ELEC EQUIP\".\n   ** Warning ** GetInternalHeatGains: ElectricEquipment Combination of ZoneList and Object Name generate a name too long.\n   **   ~~~   ** Object Name=\"OFFICE WHOLEBUILDING - SM OFFICE ELEC EQUIP\".\n   **   ~~~   ** ZoneList/Zone Name=\"ZONE OFFICE WHOLEBUILDING - SM OFFICE B END_A - STORY GROUND\".\n   **   ~~~   ** Item length=[103] > Maximum Length=[100]. You may need to shorten the names.\n   **   ~~~   ** Shortening the Object Name by [4] characters will assure uniqueness for this ZoneList.\n   **   ~~~   ** name that will be used (may be needed in reporting)=\"ZONE OFFICE WHOLEBUILDING - SM OFFICE B END_A - STORY GROUND OFFICE WHOLEBUILDING - SM OFFICE ELEC EQUIP\".\n   ** Warning ** GetInternalHeatGains: ElectricEquipment Combination of ZoneList and Object Name generate a name too long.\n   **   ~~~   ** Object Name=\"OFFICE WHOLEBUILDING - SM OFFICE ELEC EQUIP\".\n   **   ~~~   ** ZoneList/Zone Name=\"ZONE OFFICE WHOLEBUILDING - SM OFFICE B END_B - STORY GROUND\".\n   **   ~~~   ** Item length=[103] > Maximum Length=[100]. You may need to shorten the names.\n   **   ~~~   ** Shortening the Object Name by [4] characters will assure uniqueness for this ZoneList.\n   **   ~~~   ** name that will be used (may be needed in reporting)=\"ZONE OFFICE WHOLEBUILDING - SM OFFICE B END_B - STORY GROUND OFFICE WHOLEBUILDING - SM OFFICE ELEC EQUIP\".\n   ** Warning ** GetInternalHeatGains: ElectricEquipment Combination of ZoneList and Object Name generate a name too long.\n   **   ~~~   ** Object Name=\"OFFICE WHOLEBUILDING - SM OFFICE ELEC EQUIP\".\n   **   ~~~   ** ZoneList/Zone Name=\"ZONE OFFICE WHOLEBUILDING - SM OFFICE C END_A - STORY GROUND\".\n   **   ~~~   ** Item length=[103] > Maximum Length=[100]. You may need to shorten the names.\n   **   ~~~   ** Shortening the Object Name by [4] characters will assure uniqueness for this ZoneList.\n   **   ~~~   ** name that will be used (may be needed in reporting)=\"ZONE OFFICE WHOLEBUILDING - SM OFFICE C END_A - STORY GROUND OFFICE WHOLEBUILDING - SM OFFICE ELEC EQUIP\".\n   ** Warning ** GetInternalHeatGains: ElectricEquipment Combination of ZoneList and Object Name generate a name too long.\n   **   ~~~   ** Object Name=\"OFFICE WHOLEBUILDING - SM OFFICE ELEC EQUIP\".\n   **   ~~~   ** ZoneList/Zone Name=\"ZONE OFFICE WHOLEBUILDING - SM OFFICE C END_B - STORY GROUND\".\n   **   ~~~   ** Item length=[103] > Maximum Length=[100]. You may need to shorten the names.\n   **   ~~~   ** Shortening the Object Name by [4] characters will assure uniqueness for this ZoneList.\n   **   ~~~   ** name that will be used (may be needed in reporting)=\"ZONE OFFICE WHOLEBUILDING - SM OFFICE C END_B - STORY GROUND OFFICE WHOLEBUILDING - SM OFFICE ELEC EQUIP\".\n   ************* Beginning System Sizing Calculations\n   ************* Beginning Plant Sizing Calculations\n   ** Warning ** GetDXCoils: Coil:Cooling:DX:SingleSpeed=\"ZONE OFFICE WHOLEBUILDING - SM OFFICE A  - STORY GROUND PSZ-AC 1SPD DX AC CLG COIL 12KBTU/HR 9.7SEER\", invalid\n   **   ~~~   ** ...Part Load Fraction Correlation Curve Name = COILCLGDXEIRRATIO_FQFRAC has out of range value.\n   **   ~~~   ** ...Curve maximum must be <= 1.0, curve max at PLR = 0.99 is 1.018\n   **   ~~~   ** ...Setting curve maximum to 1.0 and simulation continues.\n   ** Warning ** The Standard Ratings is calculated for Coil:Cooling:DX:SingleSpeed = ZONE OFFICE WHOLEBUILDING - SM OFFICE A  - STORY GROUND PSZ-AC 1SPD DX AC CLG COIL 12KBTU/HR 9.7SEER but not at the AHRI test condition due to curve out of bound.\n   **   ~~~   **  Review the Standard Ratings calculations in the Engineering Reference for this coil type. Also, use Output:Diagnostics, DisplayExtraWarnings for further guidance.\n   ** Warning ** The Standard Ratings is calculated for Coil:Cooling:DX:SingleSpeed = ZONE OFFICE WHOLEBUILDING - SM OFFICE A END_A - STORY GROUND PSZ-AC 1SPD DX AC CLG COIL 8KBTU/HR 9.7SEER but not at the AHRI test condition due to curve out of bound.\n   **   ~~~   **  Review the Standard Ratings calculations in the Engineering Reference for this coil type. Also, use Output:Diagnostics, DisplayExtraWarnings for further guidance.\n   ** Warning ** The Standard Ratings is calculated for Coil:Cooling:DX:SingleSpeed = ZONE OFFICE WHOLEBUILDING - SM OFFICE A END_B - STORY GROUND PSZ-AC 1SPD DX AC CLG COIL 7KBTU/HR 9.7SEER but not at the AHRI test condition due to curve out of bound.\n   **   ~~~   **  Review the Standard Ratings calculations in the Engineering Reference for this coil type. Also, use Output:Diagnostics, DisplayExtraWarnings for further guidance.\n   ** Warning ** The Standard Ratings is calculated for Coil:Cooling:DX:SingleSpeed = ZONE OFFICE WHOLEBUILDING - SM OFFICE B  - STORY GROUND PSZ-AC 1SPD DX AC CLG COIL 8KBTU/HR 9.7SEER but not at the AHRI test condition due to curve out of bound.\n   **   ~~~   **  Review the Standard Ratings calculations in the Engineering Reference for this coil type. Also, use Output:Diagnostics, DisplayExtraWarnings for further guidance.\n   ** Warning ** The Standard Ratings is calculated for Coil:Cooling:DX:SingleSpeed = ZONE OFFICE WHOLEBUILDING - SM OFFICE B END_A - STORY GROUND PSZ-AC 1SPD DX AC CLG COIL 7KBTU/HR 9.7SEER but not at the AHRI test condition due to curve out of bound.\n   **   ~~~   **  Review the Standard Ratings calculations in the Engineering Reference for this coil type. Also, use Output:Diagnostics, DisplayExtraWarnings for further guidance.\n   ** Warning ** The Standard Ratings is calculated for Coil:Cooling:DX:SingleSpeed = ZONE OFFICE WHOLEBUILDING - SM OFFICE B END_B - STORY GROUND PSZ-AC 1SPD DX AC CLG COIL 6KBTU/HR 9.7SEER but not at the AHRI test condition due to curve out of bound.\n   **   ~~~   **  Review the Standard Ratings calculations in the Engineering Reference for this coil type. Also, use Output:Diagnostics, DisplayExtraWarnings for further guidance.\n   ** Warning ** The Standard Ratings is calculated for Coil:Cooling:DX:SingleSpeed = ZONE OFFICE WHOLEBUILDING - SM OFFICE C  - STORY GROUND PSZ-AC 1SPD DX AC CLG COIL 10KBTU/HR 9.7SEER but not at the AHRI test condition due to curve out of bound.\n   **   ~~~   **  Review the Standard Ratings calculations in the Engineering Reference for this coil type. Also, use Output:Diagnostics, DisplayExtraWarnings for further guidance.\n   ** Warning ** The Standard Ratings is calculated for Coil:Cooling:DX:SingleSpeed = ZONE OFFICE WHOLEBUILDING - SM OFFICE C END_A - STORY GROUND PSZ-AC 1SPD DX AC CLG COIL 7KBTU/HR 9.7SEER but not at the AHRI test condition due to curve out of bound.\n   **   ~~~   **  Review the Standard Ratings calculations in the Engineering Reference for this coil type. Also, use Output:Diagnostics, DisplayExtraWarnings for further guidance.\n   ** Warning ** The Standard Ratings is calculated for Coil:Cooling:DX:SingleSpeed = ZONE OFFICE WHOLEBUILDING - SM OFFICE C END_B - STORY GROUND PSZ-AC 1SPD DX AC CLG COIL 6KBTU/HR 9.7SEER but not at the AHRI test condition due to curve out of bound.\n   **   ~~~   **  Review the Standard Ratings calculations in the Engineering Reference for this coil type. Also, use Output:Diagnostics, DisplayExtraWarnings for further guidance.\n   ** Warning ** SizePlantLoop: Calculated Plant Sizing Design Volume Flow Rate=[0.00] is too small. Set to 0.0\n   **   ~~~   ** ..occurs for PlantLoop=HOT WATER LOOP\n   ** Warning ** SizePump: Calculated Pump Nominal Volume Flow Rate=[0.00] is too small. Set to 0.0\n   **   ~~~   ** ..occurs for Pump=HOT WATER LOOP PUMP\n   ** Warning ** Check input. Pump nominal power or motor efficiency is set to 0, for pump=HOT WATER LOOP PUMP\n   ** Warning ** Check input. Pump nominal flow rate is set or calculated = 0, for pump=HOT WATER LOOP PUMP\n   ** Warning ** Missing temperature setpoint for LeavingSetpointModulated mode Boiler named BOILER\n   **   ~~~   **   A temperature setpoint is needed at the outlet node of a boiler in variable flow mode, use a SetpointManager\n   **   ~~~   **   The overall loop setpoint will be assumed for Boiler. The simulation continues ... \n   ** Warning ** Output:Meter: invalid Key Name=\"HEATING:ADDITIONALFUEL\" - not found.\n   ** Warning ** Output:Meter: invalid Key Name=\"HEATING:DISTRICTCOOLING\" - not found.\n   ** Warning ** Output:Meter: invalid Key Name=\"HEATING:DISTRICTHEATING\" - not found.\n   ** Warning ** Output:Meter: invalid Key Name=\"HEATING:WATER\" - not found.\n   ** Warning ** Output:Meter: invalid Key Name=\"COOLING:GAS\" - not found.\n   ** Warning ** Output:Meter: invalid Key Name=\"COOLING:ADDITIONALFUEL\" - not found.\n   ** Warning ** Output:Meter: invalid Key Name=\"COOLING:DISTRICTCOOLING\" - not found.\n   ** Warning ** Output:Meter: invalid Key Name=\"COOLING:DISTRICTHEATING\" - not found.\n   ** Warning ** Output:Meter: invalid Key Name=\"COOLING:WATER\" - not found.\n   ** Warning ** Output:Meter: invalid Key Name=\"INTERIORLIGHTS:GAS\" - not found.\n   ** Warning ** Output:Meter: invalid Key Name=\"INTERIORLIGHTS:ADDITIONALFUEL\" - not found.\n   ** Warning ** Output:Meter: invalid Key Name=\"INTERIORLIGHTS:DISTRICTCOOLING\" - not found.\n   ** Warning ** Output:Meter: invalid Key Name=\"INTERIORLIGHTS:DISTRICTHEATING\" - not found.\n   ** Warning ** Output:Meter: invalid Key Name=\"INTERIORLIGHTS:WATER\" - not found.\n   ** Warning ** Output:Meter: invalid Key Name=\"EXTERIORLIGHTS:GAS\" - not found.\n   ** Warning ** Output:Meter: invalid Key Name=\"EXTERIORLIGHTS:ADDITIONALFUEL\" - not found.\n   ** Warning ** Output:Meter: invalid Key Name=\"EXTERIORLIGHTS:DISTRICTCOOLING\" - not found.\n   ** Warning ** Output:Meter: invalid Key Name=\"EXTERIORLIGHTS:DISTRICTHEATING\" - not found.\n   ** Warning ** Output:Meter: invalid Key Name=\"EXTERIORLIGHTS:WATER\" - not found.\n   ** Warning ** Output:Meter: invalid Key Name=\"INTERIOREQUIPMENT:GAS\" - not found.\n   ** Warning ** Output:Meter: invalid Key Name=\"INTERIOREQUIPMENT:ADDITIONALFUEL\" - not found.\n   ** Warning ** Output:Meter: invalid Key Name=\"INTERIOREQUIPMENT:DISTRICTCOOLING\" - not found.\n   ** Warning ** Output:Meter: invalid Key Name=\"INTERIOREQUIPMENT:DISTRICTHEATING\" - not found.\n   ** Warning ** Output:Meter: invalid Key Name=\"INTERIOREQUIPMENT:WATER\" - not found.\n   ** Warning ** Output:Meter: invalid Key Name=\"EXTERIOREQUIPMENT:ELECTRICITY\" - not found.\n   ** Warning ** Output:Meter: invalid Key Name=\"EXTERIOREQUIPMENT:GAS\" - not found.\n   ** Warning ** Output:Meter: invalid Key Name=\"EXTERIOREQUIPMENT:ADDITIONALFUEL\" - not found.\n   ** Warning ** Output:Meter: invalid Key Name=\"EXTERIOREQUIPMENT:DISTRICTCOOLING\" - not found.\n   ** Warning ** Output:Meter: invalid Key Name=\"EXTERIOREQUIPMENT:DISTRICTHEATING\" - not found.\n   ** Warning ** Output:Meter: invalid Key Name=\"EXTERIOREQUIPMENT:WATER\" - not found.\n   ** Warning ** Output:Meter: invalid Key Name=\"FANS:GAS\" - not found.\n   ** Warning ** Output:Meter: invalid Key Name=\"FANS:ADDITIONALFUEL\" - not found.\n   ** Warning ** Output:Meter: invalid Key Name=\"FANS:DISTRICTCOOLING\" - not found.\n   ** Warning ** Output:Meter: invalid Key Name=\"FANS:DISTRICTHEATING\" - not found.\n   ** Warning ** Output:Meter: invalid Key Name=\"FANS:WATER\" - not found.\n   ** Warning ** Output:Meter: invalid Key Name=\"PUMPS:GAS\" - not found.\n   ** Warning ** Output:Meter: invalid Key Name=\"PUMPS:ADDITIONALFUEL\" - not found.\n   ** Warning ** Output:Meter: invalid Key Name=\"PUMPS:DISTRICTCOOLING\" - not found.\n   ** Warning ** Output:Meter: invalid Key Name=\"PUMPS:DISTRICTHEATING\" - not found.\n   ** Warning ** Output:Meter: invalid Key Name=\"PUMPS:WATER\" - not found.\n   ** Warning ** Output:Meter: invalid Key Name=\"HEATREJECTION:ELECTRICITY\" - not found.\n   ** Warning ** Output:Meter: invalid Key Name=\"HEATREJECTION:GAS\" - not found.\n   ** Warning ** Output:Meter: invalid Key Name=\"HEATREJECTION:ADDITIONALFUEL\" - not found.\n   ** Warning ** Output:Meter: invalid Key Name=\"HEATREJECTION:DISTRICTCOOLING\" - not found.\n   ** Warning ** Output:Meter: invalid Key Name=\"HEATREJECTION:DISTRICTHEATING\" - not found.\n   ** Warning ** Output:Meter: invalid Key Name=\"HEATREJECTION:WATER\" - not found.\n   ** Warning ** Output:Meter: invalid Key Name=\"HUMIDIFIER:ELECTRICITY\" - not found.\n   ** Warning ** Output:Meter: invalid Key Name=\"HUMIDIFIER:GAS\" - not found.\n   ** Warning ** Output:Meter: invalid Key Name=\"HUMIDIFIER:ADDITIONALFUEL\" - not found.\n   ** Warning ** Output:Meter: invalid Key Name=\"HUMIDIFIER:DISTRICTCOOLING\" - not found.\n   ** Warning ** Output:Meter: invalid Key Name=\"HUMIDIFIER:DISTRICTHEATING\" - not found.\n   ** Warning ** Output:Meter: invalid Key Name=\"HUMIDIFIER:WATER\" - not found.\n   ** Warning ** Output:Meter: invalid Key Name=\"HEATRECOVERY:ELECTRICITY\" - not found.\n   ** Warning ** Output:Meter: invalid Key Name=\"HEATRECOVERY:GAS\" - not found.\n   ** Warning ** Output:Meter: invalid Key Name=\"HEATRECOVERY:ADDITIONALFUEL\" - not found.\n   ** Warning ** Output:Meter: invalid Key Name=\"HEATRECOVERY:DISTRICTCOOLING\" - not found.\n   ** Warning ** Output:Meter: invalid Key Name=\"HEATRECOVERY:DISTRICTHEATING\" - not found.\n   ** Warning ** Output:Meter: invalid Key Name=\"HEATRECOVERY:WATER\" - not found.\n   ** Warning ** Output:Meter: invalid Key Name=\"WATERSYSTEMS:ELECTRICITY\" - not found.\n   ** Warning ** Output:Meter: invalid Key Name=\"WATERSYSTEMS:ADDITIONALFUEL\" - not found.\n   ** Warning ** Output:Meter: invalid Key Name=\"WATERSYSTEMS:DISTRICTCOOLING\" - not found.\n   ** Warning ** Output:Meter: invalid Key Name=\"WATERSYSTEMS:DISTRICTHEATING\" - not found.\n   ** Warning ** Output:Meter: invalid Key Name=\"REFRIGERATION:ELECTRICITY\" - not found.\n   ** Warning ** Output:Meter: invalid Key Name=\"REFRIGERATION:GAS\" - not found.\n   ** Warning ** Output:Meter: invalid Key Name=\"REFRIGERATION:ADDITIONALFUEL\" - not found.\n   ** Warning ** Output:Meter: invalid Key Name=\"REFRIGERATION:DISTRICTCOOLING\" - not found.\n   ** Warning ** Output:Meter: invalid Key Name=\"REFRIGERATION:DISTRICTHEATING\" - not found.\n   ** Warning ** Output:Meter: invalid Key Name=\"REFRIGERATION:WATER\" - not found.\n   ** Warning ** Output:Meter: invalid Key Name=\"GENERATORS:ELECTRICITY\" - not found.\n   ** Warning ** Output:Meter: invalid Key Name=\"GENERATORS:GAS\" - not found.\n   ** Warning ** Output:Meter: invalid Key Name=\"GENERATORS:ADDITIONALFUEL\" - not found.\n   ** Warning ** Output:Meter: invalid Key Name=\"GENERATORS:DISTRICTCOOLING\" - not found.\n   ** Warning ** Output:Meter: invalid Key Name=\"GENERATORS:DISTRICTHEATING\" - not found.\n   ** Warning ** Output:Meter: invalid Key Name=\"GENERATORS:WATER\" - not found.\n   ** Warning ** Output:Meter: invalid Key Name=\"ADDITIONALFUEL:FACILITY\" - not found.\n   ** Warning ** Output:Meter: invalid Key Name=\"DISTRICTCOOLING:FACILITY\" - not found.\n   ** Warning ** Output:Meter: invalid Key Name=\"DISTRICTHEATING:FACILITY\" - not found.\n   ** Warning ** Output:Meter:MeterFileOnly requested for \"Electricity:Facility\" (TimeStep), already on \"Output:Meter\". Will report to both eplusout.eso and eplusout.mtr\n   ** Warning ** Output:Meter:MeterFileOnly: invalid Key Name=\"ELECTRICITYPRODUCED:FACILITY\" - not found.\n   ** Warning ** Output:Meter:MeterFileOnly requested for \"Gas:Facility\" (TimeStep), already on \"Output:Meter\". Will report to both eplusout.eso and eplusout.mtr\n   ** Warning ** Output:Meter:MeterFileOnly: invalid Key Name=\"DISTRICTCOOLING:FACILITY\" - not found.\n   ** Warning ** Output:Meter:MeterFileOnly: invalid Key Name=\"DISTRICTHEATING:FACILITY\" - not found.\n   ************* Testing Individual Branch Integrity\n   ************* All Branches passed integrity testing\n   ************* Testing Individual Supply Air Path Integrity\n   ************* All Supply Air Paths passed integrity testing\n   ************* Testing Individual Return Air Path Integrity\n   ************* All Return Air Paths passed integrity testing\n   ************* No node connection errors were found.\n   ************* Beginning Simulation\n   ** Warning ** Processing Monthly Tabular Reports: Variable names not valid for this simulation\n   **   ~~~   ** ...use Output:Diagnostics,DisplayExtraWarnings; to show more details on individual variables.\n   ** Warning ** GetInputEconomicsTariff: UtilityCost:Tariff=\"DISTRICTHEATING TARIFF\" missing meter\n   **   ~~~   ** Meter referenced is not present due to a lack of equipment that uses that energy source/meter:\"DISTRICTHEATING:FACILITY\".\n   ** Warning ** GetInputEconomicsTariff: UtilityCost:Tariff=\"DISTRICTCOOLING TARIFF\" missing meter\n   **   ~~~   ** Meter referenced is not present due to a lack of equipment that uses that energy source/meter:\"DISTRICTCOOLING:FACILITY\".\n   ** Warning ** The resource referenced by LifeCycleCost:UsePriceEscalation= \"U.S. AVG  COMMERCIAL-ELECTRICITY\" has no energy cost. \n   **   ~~~   ** ... It is likely that the wrong resource is used. The resource should match the meter used in Utility:Tariff.\n   ** Warning ** The resource referenced by LifeCycleCost:UsePriceEscalation= \"U.S. AVG  COMMERCIAL-DISTILLATE OIL\" has no energy cost. \n   **   ~~~   ** ... It is likely that the wrong resource is used. The resource should match the meter used in Utility:Tariff.\n   ** Warning ** The resource referenced by LifeCycleCost:UsePriceEscalation= \"U.S. AVG  COMMERCIAL-RESIDUAL OIL\" has no energy cost. \n   **   ~~~   ** ... It is likely that the wrong resource is used. The resource should match the meter used in Utility:Tariff.\n   ** Warning ** The resource referenced by LifeCycleCost:UsePriceEscalation= \"U.S. AVG  COMMERCIAL-COAL\" has no energy cost. \n   **   ~~~   ** ... It is likely that the wrong resource is used. The resource should match the meter used in Utility:Tariff.\n   ************* Simulation Error Summary *************\n   ** Warning ** The following Report Variables were requested but not generated -- check.rdd file\n   **   ~~~   ** Either the IDF did not contain these elements, the variable name is misspelled,\n   **   ~~~   ** or the requested variable is an advanced output which requires Output : Diagnostics, DisplayAdvancedReportVariables;\n   ************* Key=*, VarName=FANGERPMV, Frequency=TimeStep\n   ************* Key=*, VarName=FANGERPPD, Frequency=TimeStep\n   ************* Key=*, VarName=TIME NOT COMFORTABLE SUMMER CLOTHES, Frequency=TimeStep\n   ************* Key=*, VarName=TIME NOT COMFORTABLE WINTER CLOTHES, Frequency=TimeStep\n   ************* Key=*, VarName=TIME NOT COMFORTABLE SUMMER OR WINTER CLOTHES, Frequency=TimeStep\n   ************* Key=*, VarName=DISTRICT COOLING CHILLED WATER RATE, Frequency=TimeStep\n   ************* Key=*, VarName=DISTRICT COOLING MASS FLOW RATE, Frequency=TimeStep\n   ************* Key=*, VarName=DISTRICT COOLING INLET TEMPERATURE, Frequency=TimeStep\n   ************* Key=*, VarName=DISTRICT COOLING OUTLET TEMPERATURE, Frequency=TimeStep\n   ************* Key=*, VarName=DISTRICT HEATING HOT WATER RATE, Frequency=TimeStep\n   ************* Key=*, VarName=DISTRICT HEATING MASS FLOW RATE, Frequency=TimeStep\n   ************* Key=*, VarName=DISTRICT HEATING INLET TEMPERATURE, Frequency=TimeStep\n   ************* Key=*, VarName=DISTRICT HEATING OUTLET TEMPERATURE, Frequency=TimeStep\n   ************* There are 3 unused schedules in input.\n   ************* There are 3 unused week schedules in input.\n   ************* There are 8 unused day schedules in input.\n   ************* Use Output:Diagnostics,DisplayUnusedSchedules; to see them.\n   *************\n   ************* ===== Final Error Summary =====\n   ************* The following error categories occurred.  Consider correcting or noting.\n   ************* Nominally Unused Constructions\n   ************* ..The nominally unused constructions warning is provided to alert you to potential conditions that can cause\n   ************* ..extra time during simulation. Each construction is calculated by the algorithm indicated in the HeatBalanceAlgorithm\n   ************* ..object. You may remove the constructions indicated (when you use the DisplayExtraWarnings option).\n   *************\n   ************* EnergyPlus Warmup Error Summary. During Warmup: 0 Warning; 0 Severe Errors.\n   ************* EnergyPlus Sizing Error Summary. During Sizing: 63 Warning; 0 Severe Errors.\n   ************* EnergyPlus Completed Successfully-- 169 Warning; 0 Severe Errors; Elapsed Time=00hr 00min  2.75sec\n",
   "file_paths" : [
      "C:/gitrepos/urbanopt-scenario-gem/spec/test/example_scenario/3/generated_files",
      "C:/gitrepos/urbanopt-scenario-gem/spec/files/mappers/../weather/",
      "C:/gitrepos/urbanopt-scenario-gem/.bundle/install/ruby/2.2.0/gems/openstudio-common-measures-0.1.2/lib/files",
      "C:/gitrepos/urbanopt-scenario-gem/.bundle/install/ruby/2.2.0/gems/openstudio-model-articulation-0.1.1/lib/files",
      "C:/gitrepos/urbanopt-scenario-gem/.bundle/install/ruby/2.2.0/gems/openstudio-extension-0.1.6/lib/files",
      "./files",
      "./weather",
      "../../files",
      "../../weather",
      "./"
   ],
   "hash" : "2F530C35",
   "measure_paths" : [
      "C:/gitrepos/urbanopt-scenario-gem/.bundle/install/ruby/2.2.0/gems/openstudio-common-measures-0.1.2/lib/measures",
      "C:/gitrepos/urbanopt-scenario-gem/.bundle/install/ruby/2.2.0/gems/openstudio-model-articulation-0.1.1/lib/measures",
      "C:/gitrepos/urbanopt-scenario-gem/lib/measures",
      "C:/gitrepos/urbanopt-scenario-gem/.bundle/install/ruby/2.2.0/gems/openstudio-extension-0.1.6/lib/measures"
   ],
   "name" : "Building 3",
   "run_directory" : "C:/gitrepos/urbanopt-scenario-gem/spec/test/example_scenario/3",
   "seed_file" : null,
   "started_at" : "20200323T045746Z",
   "steps" : [
      {
         "arguments" : {
            "climate_zone" : "ASHRAE 169-2013-5B",
            "weather_file_name" : "urbanopt_scenario_tests.epw"
         },
         "measure_dir_name" : "ChangeBuildingLocation",
         "result" : {
            "completed_at" : "20200323T045748Z",
            "measure_class_name" : "ChangeBuildingLocation",
            "measure_display_name" : "ChangeBuildingLocation",
            "measure_name" : "change_building_location",
            "measure_taxonomy" : "Whole Building.Space Types",
            "measure_type" : "ModelMeasure",
            "measure_uid" : "d4db4971-f5ba-11e3-a3ac-0800200c9a66",
            "measure_version_id" : "ee75726e-6dad-4da9-9f64-a40f4e79bd92",
            "measure_version_modified" : "20200229T024319Z",
            "measure_xml_checksum" : "057E8D9D",
            "started_at" : "20200323T045746Z",
            "stderr" : "",
            "stdout" : "[openstudio.model.YearDescription] <1> 'UseWeatherFile' is not yet a supported option for YearDescription\n[openstudio.model.YearDescription] <1> 'UseWeatherFile' is not yet a supported option for YearDescription\n",
            "step_errors" : [],
            "step_files" : [],
            "step_final_condition" : "The final weather file is Denver Centennial  Golden   Nr and the model has 3 design day objects.",
            "step_info" : [
               "city is Denver Centennial  Golden   Nr. State is CO",
               "mean dry bulb is 9.7",
               "Adding object Denver Centennial  Golden   N Ann Clg .4% Condns DB=>MWB",
               "Adding object Denver Centennial  Golden   N Ann Clg .4% Condns WB=>MDB",
               "Adding object Denver Centennial  Golden   N Ann Htg 99.6% Condns DB",
               "Setting Climate Zone to 5B"
            ],
            "step_initial_condition" : "No weather file is set. The model has 0 design day objects",
            "step_result" : "Success",
            "step_values" : [
               {
                  "name" : "weather_file_name",
                  "value" : "urbanopt_scenario_tests.epw"
               },
               {
                  "name" : "climate_zone",
                  "value" : "ASHRAE 169-2013-5B"
               },
               {
                  "name" : "set_year",
                  "value" : 0
               },
               {
                  "name" : "use_upstream_args",
                  "value" : true
               },
               {
                  "name" : "epw_gsub",
                  "value" : "Do Nothing"
               },
               {
                  "name" : "reported_climate_zone",
                  "value" : "ASHRAE 169-2013-5B"
               }
            ],
            "step_warnings" : []
         }
      },
      {
         "arguments" : {
            "begin_date" : "2012-06-01",
            "end_date" : "2012-06-01",
            "timesteps_per_hour" : 1
         },
         "measure_dir_name" : "set_run_period",
         "result" : {
            "completed_at" : "20200323T045748Z",
            "measure_class_name" : "SetRunPeriod",
            "measure_display_name" : "SetRunPeriod",
            "measure_name" : "set_run_period",
            "measure_taxonomy" : "Envelope.Form",
            "measure_type" : "ModelMeasure",
            "measure_uid" : "7a84292a-3975-4ab3-9284-6edabcbe750b",
            "measure_version_id" : "c3a54143-dcda-4280-850b-c26cd7260211",
            "measure_version_modified" : "20200229T024314Z",
            "measure_xml_checksum" : "2AF3A68E",
            "started_at" : "20200323T045748Z",
            "stderr" : "",
            "stdout" : "",
            "step_errors" : [],
            "step_files" : [],
            "step_info" : [],
            "step_result" : "Success",
            "step_values" : [
               {
                  "name" : "timesteps_per_hour",
                  "value" : 1
               },
               {
                  "name" : "begin_date",
                  "value" : "2012-06-01"
               },
               {
                  "name" : "end_date",
                  "value" : "2012-06-01"
               }
            ],
            "step_warnings" : []
         }
      },
      {
         "arguments" : {
            "floor_height" : 0,
            "ns_to_ew_ratio" : 0,
            "total_bldg_floor_area" : 3000,
            "wwr" : 0
         },
         "measure_dir_name" : "create_bar_from_building_type_ratios",
         "result" : {
            "completed_at" : "20200323T045810Z",
            "measure_class_name" : "CreateBarFromBuildingTypeRatios",
            "measure_display_name" : "Create Bar From Building Type Ratios",
            "measure_name" : "create_bar_from_building_type_ratios",
            "measure_taxonomy" : "Envelope.Form",
            "measure_type" : "ModelMeasure",
            "measure_uid" : "6e3a14f8-c3c7-4e03-bc51-bef8a52e1a05",
            "measure_version_id" : "98068f42-8546-42bc-b4a5-6bfcd0e332d4",
            "measure_version_modified" : "20200229T024044Z",
            "measure_xml_checksum" : "2AF3A68E",
            "started_at" : "20200323T045759Z",
            "stderr" : "",
            "stdout" : "",
            "step_errors" : [],
            "step_files" : [],
            "step_final_condition" : "The building finished with 9 spaces.",
            "step_info" : [
               "Replacing argument named climate_zone from current measure with a value of ASHRAE 169-2013-5B from ChangeBuildingLocation.",
               "0.0 value for aspect ratio will be replaced with smart default for SmallOffice of 1.5.",
               "0.0 value for minimum perimeter multiplier will be replaced with smart default for SmallOffice of 1.0.",
               "0.0 value for floor height will be replaced with smart default for SmallOffice of 10.0.",
               "0.0 value for window to wall ratio will be replaced with smart default for SmallOffice of 0.15.",
               "Creating Space Types for SmallOffice.",
               "Making bar with length of 67 ft and width of 45 ft",
               "Intersecting and matching surfaces in model, this will create additional geometry.",
               "Created bar envelope with floor area of 3,000 ft^2. Total building area is 3,000 ft^2."
            ],
            "step_initial_condition" : "The building started with 0 spaces.",
            "step_result" : "Success",
            "step_values" : [
               {
                  "name" : "bldg_type_a",
                  "value" : "SmallOffice"
               },
               {
                  "name" : "bldg_type_a_num_units",
                  "value" : 1
               },
               {
                  "name" : "bldg_type_b",
                  "value" : "SmallOffice"
               },
               {
                  "name" : "bldg_type_b_fract_bldg_area",
                  "value" : 0
               },
               {
                  "name" : "bldg_type_b_num_units",
                  "value" : 1
               },
               {
                  "name" : "bldg_type_c",
                  "value" : "SmallOffice"
               },
               {
                  "name" : "bldg_type_c_fract_bldg_area",
                  "value" : 0
               },
               {
                  "name" : "bldg_type_c_num_units",
                  "value" : 1
               },
               {
                  "name" : "bldg_type_d",
                  "value" : "SmallOffice"
               },
               {
                  "name" : "bldg_type_d_fract_bldg_area",
                  "value" : 0
               },
               {
                  "name" : "bldg_type_d_num_units",
                  "value" : 1
               },
               {
                  "name" : "total_bldg_floor_area",
                  "value" : 3000
               },
               {
                  "name" : "single_floor_area",
                  "value" : 0
               },
               {
                  "name" : "floor_height",
                  "value" : 0
               },
               {
                  "name" : "custom_height_bar",
                  "value" : true
               },
               {
                  "name" : "num_stories_above_grade",
                  "value" : 1
               },
               {
                  "name" : "num_stories_below_grade",
                  "value" : 0
               },
               {
                  "name" : "building_rotation",
                  "value" : 0
               },
               {
                  "name" : "template",
                  "value" : "90.1-2004"
               },
               {
                  "name" : "ns_to_ew_ratio",
                  "value" : 0
               },
               {
                  "name" : "perim_mult",
                  "value" : 0
               },
               {
                  "name" : "bar_sep_dist_mult",
                  "value" : 10
               },
               {
                  "name" : "wwr",
                  "value" : 0
               },
               {
                  "name" : "party_wall_fraction",
                  "value" : 0
               },
               {
                  "name" : "party_wall_stories_north",
                  "value" : 0
               },
               {
                  "name" : "party_wall_stories_south",
                  "value" : 0
               },
               {
                  "name" : "party_wall_stories_east",
                  "value" : 0
               },
               {
                  "name" : "party_wall_stories_west",
                  "value" : 0
               },
               {
                  "name" : "bottom_story_ground_exposed_floor",
                  "value" : true
               },
               {
                  "name" : "top_story_exterior_exposed_roof",
                  "value" : true
               },
               {
                  "name" : "story_multiplier",
                  "value" : "Basements Ground Mid Top"
               },
               {
                  "name" : "make_mid_story_surfaces_adiabatic",
                  "value" : false
               },
               {
                  "name" : "bar_division_method",
                  "value" : "Multiple Space Types - Individual Stories Sliced"
               },
               {
                  "name" : "double_loaded_corridor",
                  "value" : "Primary Space Type"
               },
               {
                  "name" : "space_type_sort_logic",
                  "value" : "Building Type > Size"
               },
               {
                  "name" : "use_upstream_args",
                  "value" : true
               },
               {
                  "name" : "climate_zone",
                  "value" : "Lookup From Stat File"
               },
               {
                  "name" : "wall_area_ip",
                  "units" : "ft^2",
                  "value" : 2236.0679774997861
               },
               {
                  "name" : "ns_wall_area_ip",
                  "units" : "ft^2",
                  "value" : 1341.64078649987
               },
               {
                  "name" : "ew_wall_area_ip",
                  "units" : "ft^2",
                  "value" : 894.42719099991609
               },
               {
                  "name" : "floor_area_to_perim_ratio",
                  "value" : 4.0893211172516111
               },
               {
                  "name" : "bar_width",
                  "units" : "ft",
                  "value" : 44.721359549995789
               }
            ],
            "step_warnings" : []
         }
      },
      {
         "arguments" : {},
         "measure_dir_name" : "create_typical_building_from_model",
         "result" : {
            "completed_at" : "20200323T045836Z",
            "measure_class_name" : "CreateTypicalBuildingFromModel",
            "measure_display_name" : "Create Typical Building from Model",
            "measure_name" : "create_typical_building_from_model",
            "measure_taxonomy" : "Whole Building.Space Types",
            "measure_type" : "ModelMeasure",
            "measure_uid" : "339a2e3a-273c-4494-bb50-bfe586a0647c",
            "measure_version_id" : "41239158-445a-414c-a6f0-2fba3a7c696c",
            "measure_version_modified" : "20200229T024052Z",
            "measure_xml_checksum" : "EE13F09F",
            "started_at" : "20200323T045810Z",
            "stderr" : "",
            "stdout" : "",
            "step_errors" : [],
            "step_files" : [],
            "step_final_condition" : "The building finished with 1170 objects.",
            "step_info" : [
               "Replacing argument named climate_zone from current measure with a value of ASHRAE 169-2013-5B from ChangeBuildingLocation.",
               "Replacing argument named template from current measure with a value of 90.1-2004 from create_bar_from_building_type_ratios.",
               "Adding loads to space type named Office WholeBuilding - Sm Office - 90.1-2004",
               "Using climate zone ASHRAE 169-2013-5B from user arguments",
               "Adding default construction set named Res 90.1-2004 - Office - ASHRAE 169-2013-5B",
               "No elevators added to the building.",
               "Adding Exterior Lights named Parking Areas and Drives Def (W/ft^2) with design level of 0.15 * 4,860.",
               "Adding Exterior Lights named Building Facades Def (W/ft^2) with design level of 0.2 * 2,236.",
               "Adding Exterior Lights named Main Entries Def (W/ft) with design level of 30.0 * 8.",
               "Adding Exterior Lights named Other Doors Def (W/ft) with design level of 20.0 * 2.",
               "Adding Office Shared Service Water Loop to the building. It has 1 water use connections.",
               "Assigning Office WholeBuilding - Sm Office - 90.1-2004 Thermostat to thermal zones with Office WholeBuilding - Sm Office - 90.1-2004 assigned.",
               "Using OpenStudio Standards version 0.2.10 with template 90.1-2004.",
               "Loading OpenStudio Standards data for 90.1-2004",
               "Office WholeBuilding - Sm Office had no people, one has been created.",
               "Office WholeBuilding - Sm Office set occupancy to 5.6 people/1000 ft^2.",
               "Office WholeBuilding - Sm Office had no lights, one has been created.",
               "Office WholeBuilding - Sm Office set LPD to 1.0 W/ft^2.",
               "Office WholeBuilding - Sm Office had no electric equipment, one has been created.",
               "Office WholeBuilding - Sm Office set electric EPD to 0.63 W/ft^2.",
               "Office WholeBuilding - Sm Office had no ventilation specification, one has been created.",
               "Office WholeBuilding - Sm Office set ventilation per area to 0.1 cfm/ft^2.",
               "Office WholeBuilding - Sm Office set occupancy schedule to OfficeSmall BLDG_OCC_SCH.",
               "Office WholeBuilding - Sm Office set occupant activity schedule to OfficeSmall ACTIVITY_SCH.",
               "Office WholeBuilding - Sm Office set lighting schedule to OfficeSmall BLDG_LIGHT_SCH.",
               "Office WholeBuilding - Sm Office set electric equipment schedule to OfficeSmall BLDG_EQUIP_SCH.",
               "Office WholeBuilding - Sm Office set infiltration schedule to OfficeSmall INFIL_QUARTER_ON_SCH.",
               "Adding construction set: 90.1-2004-ASHRAE 169-2013-5B-Office--is_residentialNo",
               "Adding construction Typical Insulated Exterior Mass Floor R-11.49.",
               "Adding construction Typical Insulated Exterior Mass Wall R-8.13.",
               "Adding construction Typical IEAD Roof R-15.87.",
               "Adding construction Typical Interior Floor.",
               "Adding construction Typical Interior Wall.",
               "Adding construction Typical Interior Ceiling.",
               "Adding construction Typical Insulated Carpeted 6in Slab Floor.",
               "Adding construction Typical Insulated Basement Mass Wall.",
               "Adding construction U 0.57 SHGC 0.49 Dbl Blue 6mm/6mm Air.",
               "Adding construction Typical Insulated Metal Door R-1.43.",
               "Adding construction Typical Overhead Door.",
               "Adding construction U 1.17 SHGC 0.49 Simple Glazing Skylight U-1.17 SHGC 0.0.",
               "Adding construction Typical Interior Window.",
               "Adding construction Typical Interior Door.",
               "Adding construction Typical Interior Partition.",
               "For Office WholeBuilding - Sm Office A  - Story Ground, set infiltration rate to 0.202 cfm/ft2 exterior wall area (aka 1.8 cfm/ft2 @75Pa).",
               "For Office WholeBuilding - Sm Office A end_a - Story Ground, set infiltration rate to 0.202 cfm/ft2 exterior wall area (aka 1.8 cfm/ft2 @75Pa).",
               "For Office WholeBuilding - Sm Office A end_b - Story Ground, set infiltration rate to 0.202 cfm/ft2 exterior wall area (aka 1.8 cfm/ft2 @75Pa).",
               "For Office WholeBuilding - Sm Office B  - Story Ground, no exterior wall area was found, no infiltration will be added.",
               "For Office WholeBuilding - Sm Office B end_a - Story Ground, set infiltration rate to 0.202 cfm/ft2 exterior wall area (aka 1.8 cfm/ft2 @75Pa).",
               "For Office WholeBuilding - Sm Office B end_b - Story Ground, set infiltration rate to 0.202 cfm/ft2 exterior wall area (aka 1.8 cfm/ft2 @75Pa).",
               "For Office WholeBuilding - Sm Office C  - Story Ground, set infiltration rate to 0.202 cfm/ft2 exterior wall area (aka 1.8 cfm/ft2 @75Pa).",
               "For Office WholeBuilding - Sm Office C end_a - Story Ground, set infiltration rate to 0.202 cfm/ft2 exterior wall area (aka 1.8 cfm/ft2 @75Pa).",
               "For Office WholeBuilding - Sm Office C end_b - Story Ground, set infiltration rate to 0.202 cfm/ft2 exterior wall area (aka 1.8 cfm/ft2 @75Pa).",
               "The building only has 1 story, no elevators will be added.",
               "For Office WholeBuilding - Sm Office - 90.1-2004, floor area = 3000 ft^2.",
               "For Office WholeBuilding - Sm Office - 90.1-2004, number of spaces = 9.",
               "For Office WholeBuilding - Sm Office - 90.1-2004, number of people = 17.",
               "Facade and Landscape exterior lights shut off from {:hr=>24, :min=>0} to {:hr=>6, :min=>0}",
               "Added 0.15 W/ft^2 of lighting for 4859.999999999988 ft^2 of parking area.",
               "Added 0.2 W/ft^2 of lighting for 2236.0679774997866 ft^2 of building facade area.",
               "Added 30.0 W/ft of lighting for 8.0 ft of main entry length.",
               "Added 20.0 W/ft of lighting for 2.3999999999999937 ft of other doors.",
               "For Office WholeBuilding - Sm Office - 90.1-2004, floor area = 3000 ft^2.",
               "For Office WholeBuilding - Sm Office - 90.1-2004, number of spaces = 9.",
               "For Office WholeBuilding - Sm Office - 90.1-2004, number of people = 17.",
               "Added Office WholeBuilding - Sm Office - 90.1-2004 Service Water Use 0.03gpm at 140F.",
               "Capacity of 1718 Btu/hr = 1.0 peak fraction * 2 gal/hr * 8.4 lb/gal * 1.0 Btu/lb F * (140 - 40 deltaF / 0.8 htg eff).",
               "Capacity of 1718 Btu/hr = 1.0 peak fraction * 2 gal/hr * 8.4 lb/gal * 1.0 Btu/lb F * (140 - 40 deltaF / 0.8 htg eff).",
               "Added water heater called 40gal NaturalGas Water Heater - 2kBtu/hr",
               "Pipe length 110ft = 2.0 * ( (3000ft2 / 1.0000000000000002 stories)^0.5 + (10.0ft * (1.0000000000000002 stories - 1.0) ) )",
               "Added 110ft of Copper pipe 0.75in type L with 0.5in fiberglass batt losing heat to 70F air to Office Shared Service Water Loop.",
               "Added circulating SWH loop called Office Shared Service Water Loop",
               "Adding shared water heating loop for Office.",
               "Started adding daylighting controls.",
               "For Office WholeBuilding - Sm Office B  - Story Ground, daylighting control not applicable because no exterior fenestration is present.",
               "Finished adding daylighting controls.",
               "Finished adding internal mass",
               "Office WholeBuilding - Sm Office - 90.1-2004 set heating setpoint schedule to OfficeSmall HTGSETP_SCH_NO_OPTIMUM.",
               "Office WholeBuilding - Sm Office - 90.1-2004 set cooling setpoint schedule to OfficeSmall CLGSETP_SCH_NO_OPTIMUM.",
               "Final system type group: occ = nonresidential, area = 3000 ft2, num stories = 1, zones:",
               "--- Zone Office WholeBuilding - Sm Office A  - Story Ground, Zone Office WholeBuilding - Sm Office A end_a - Story Ground, Zone Office WholeBuilding - Sm Office A end_b - Story Ground, Zone Office WholeBuilding - Sm Office B  - Story Ground, Zone Office WholeBuilding - Sm Office B end_a - Story Ground",
               "--- Zone Office WholeBuilding - Sm Office B end_b - Story Ground, Zone Office WholeBuilding - Sm Office C  - Story Ground, Zone Office WholeBuilding - Sm Office C end_a - Story Ground, Zone Office WholeBuilding - Sm Office C end_b - Story Ground",
               "System type is PSZ-AC for Nonresidential building of size 3000 ft^2 and 1 stories, and lookups {\"template\"=>\"90.1-2004\", \"size_category\"=>\"nonres_small\", \"heating_source\"=>\"NaturalGas\", \"cooling_source\"=>\"Electricity\", \"delivery_type\"=>\"air\"}.",
               "--- NaturalGas for main heating",
               "--- Electricity for cooling",
               "Determining which zones are served by the primary vs. secondary HVAC system.",
               "For zone Zone Office WholeBuilding - Sm Office C end_b - Story Ground, the weekly operating hrs 70.36 hrs - average weekly operating hrs 70.36 hrs = 0.0 hrs < tolerance of 40 hrs, stopping elimination process.",
               "For zone Zone Office WholeBuilding - Sm Office C end_b - Story Ground, the internal load 5.56 Btu/hr*ft^2 - average internal load 5.56 Btu/hr*ft^2 = 0.0 Btu/hr*ft^2 < tolerance of 10 Btu/hr*ft^2, stopping elimination process.",
               "Primary system zones = Zone Office WholeBuilding - Sm Office B end_a - Story Ground, Zone Office WholeBuilding - Sm Office A  - Story Ground, Zone Office WholeBuilding - Sm Office A end_b - Story Ground, Zone Office WholeBuilding - Sm Office B  - Story Ground, Zone Office WholeBuilding - Sm Office A end_a - Story Ground, Zone Office WholeBuilding - Sm Office B end_b - Story Ground, Zone Office WholeBuilding - Sm Office C  - Story Ground, Zone Office WholeBuilding - Sm Office C end_a - Story Ground, Zone Office WholeBuilding - Sm Office C end_b - Story Ground.",
               "Adding hot water loop.",
               "New high temperature hot water loop created.",
               "Adding PSZ-AC for Zone Office WholeBuilding - Sm Office B end_a - Story Ground.",
               "Adding PSZ-AC for Zone Office WholeBuilding - Sm Office A  - Story Ground.",
               "Adding PSZ-AC for Zone Office WholeBuilding - Sm Office A end_b - Story Ground.",
               "Adding PSZ-AC for Zone Office WholeBuilding - Sm Office B  - Story Ground.",
               "Adding PSZ-AC for Zone Office WholeBuilding - Sm Office A end_a - Story Ground.",
               "Adding PSZ-AC for Zone Office WholeBuilding - Sm Office B end_b - Story Ground.",
               "Adding PSZ-AC for Zone Office WholeBuilding - Sm Office C  - Story Ground.",
               "Adding PSZ-AC for Zone Office WholeBuilding - Sm Office C end_a - Story Ground.",
               "Adding PSZ-AC for Zone Office WholeBuilding - Sm Office C end_b - Story Ground.",
               "Set sizing factors to 1.25 for heating and 1.15 for cooling.",
               "Running simulation C:/gitrepos/urbanopt-scenario-gem/spec/test/example_scenario/3/003_create_typical_building_from_model/SR1.",
               "Finished run.",
               "Started applying multizone vav OA sizing.",
               "Finished applying multizone vav OA sizing.",
               "Started applying prototype HVAC assumptions.",
               "For Prototype: Zone Office WholeBuilding - Sm Office A  - Story Ground PSZ-AC Fan: 460cfm; Pressure Rise = 2.5in w.c.",
               "For Prototype: Zone Office WholeBuilding - Sm Office A end_a - Story Ground PSZ-AC Fan: 289cfm; Pressure Rise = 2.5in w.c.",
               "For Prototype: Zone Office WholeBuilding - Sm Office A end_b - Story Ground PSZ-AC Fan: 254cfm; Pressure Rise = 2.5in w.c.",
               "For Prototype: Zone Office WholeBuilding - Sm Office B  - Story Ground PSZ-AC Fan: 310cfm; Pressure Rise = 2.5in w.c.",
               "For Prototype: Zone Office WholeBuilding - Sm Office B end_a - Story Ground PSZ-AC Fan: 247cfm; Pressure Rise = 2.5in w.c.",
               "For Prototype: Zone Office WholeBuilding - Sm Office B end_b - Story Ground PSZ-AC Fan: 213cfm; Pressure Rise = 2.5in w.c.",
               "For Prototype: Zone Office WholeBuilding - Sm Office C  - Story Ground PSZ-AC Fan: 373cfm; Pressure Rise = 2.5in w.c.",
               "For Prototype: Zone Office WholeBuilding - Sm Office C end_a - Story Ground PSZ-AC Fan: 272cfm; Pressure Rise = 2.5in w.c.",
               "For Prototype: Zone Office WholeBuilding - Sm Office C end_b - Story Ground PSZ-AC Fan: 230cfm; Pressure Rise = 2.5in w.c.",
               "For Zone Office WholeBuilding - Sm Office A  - Story Ground PSZ-AC Fan: allowed_hp = 1.01HP; motor eff = 84.0%; total fan eff = 55% based on 460 cfm.",
               "For Zone Office WholeBuilding - Sm Office A end_a - Story Ground PSZ-AC Fan: allowed_hp = 1.01HP; motor eff = 84.0%; total fan eff = 55% based on 289 cfm.",
               "For Zone Office WholeBuilding - Sm Office A end_b - Story Ground PSZ-AC Fan: allowed_hp = 1.01HP; motor eff = 84.0%; total fan eff = 55% based on 254 cfm.",
               "For Zone Office WholeBuilding - Sm Office B  - Story Ground PSZ-AC Fan: allowed_hp = 1.01HP; motor eff = 84.0%; total fan eff = 55% based on 310 cfm.",
               "For Zone Office WholeBuilding - Sm Office B end_a - Story Ground PSZ-AC Fan: allowed_hp = 1.01HP; motor eff = 84.0%; total fan eff = 55% based on 247 cfm.",
               "For Zone Office WholeBuilding - Sm Office B end_b - Story Ground PSZ-AC Fan: allowed_hp = 1.01HP; motor eff = 84.0%; total fan eff = 55% based on 213 cfm.",
               "For Zone Office WholeBuilding - Sm Office C  - Story Ground PSZ-AC Fan: allowed_hp = 1.01HP; motor eff = 84.0%; total fan eff = 55% based on 373 cfm.",
               "For Zone Office WholeBuilding - Sm Office C end_a - Story Ground PSZ-AC Fan: allowed_hp = 1.01HP; motor eff = 84.0%; total fan eff = 55% based on 272 cfm.",
               "For Zone Office WholeBuilding - Sm Office C end_b - Story Ground PSZ-AC Fan: allowed_hp = 1.01HP; motor eff = 84.0%; total fan eff = 55% based on 230 cfm.",
               "Zone Office WholeBuilding - Sm Office A  - Story Ground PSZ-AC does not require an economizer because the total cooling capacity of 12252 Btu/hr is less than the minimum capacity of 65000 Btu/hr.",
               "Zone Office WholeBuilding - Sm Office A end_a - Story Ground PSZ-AC does not require an economizer because the total cooling capacity of 7704 Btu/hr is less than the minimum capacity of 65000 Btu/hr.",
               "Zone Office WholeBuilding - Sm Office A end_b - Story Ground PSZ-AC does not require an economizer because the total cooling capacity of 6772 Btu/hr is less than the minimum capacity of 65000 Btu/hr.",
               "Zone Office WholeBuilding - Sm Office B  - Story Ground PSZ-AC does not require an economizer because the total cooling capacity of 8267 Btu/hr is less than the minimum capacity of 65000 Btu/hr.",
               "Zone Office WholeBuilding - Sm Office B end_a - Story Ground PSZ-AC does not require an economizer because the total cooling capacity of 6591 Btu/hr is less than the minimum capacity of 65000 Btu/hr.",
               "Zone Office WholeBuilding - Sm Office B end_b - Story Ground PSZ-AC does not require an economizer because the total cooling capacity of 5687 Btu/hr is less than the minimum capacity of 65000 Btu/hr.",
               "Zone Office WholeBuilding - Sm Office C  - Story Ground PSZ-AC does not require an economizer because the total cooling capacity of 9936 Btu/hr is less than the minimum capacity of 65000 Btu/hr.",
               "Zone Office WholeBuilding - Sm Office C end_a - Story Ground PSZ-AC does not require an economizer because the total cooling capacity of 7255 Btu/hr is less than the minimum capacity of 65000 Btu/hr.",
               "Zone Office WholeBuilding - Sm Office C end_b - Story Ground PSZ-AC does not require an economizer because the total cooling capacity of 6139 Btu/hr is less than the minimum capacity of 65000 Btu/hr.",
               "Finished applying prototype HVAC assumptions.",
               "Started applying HVAC efficiency standards.",
               "For Zone Office WholeBuilding - Sm Office A  - Story Ground PSZ-AC, ERV not required based on 12% OA flow, design supply air flow of 460cfm, and climate zone ASHRAE 169-2013-5B.",
               "For Zone Office WholeBuilding - Sm Office A  - Story Ground PSZ-AC: non-integrated economizer per 6.5.1.3 exception b, DX system less than 65000Btu/hr.",
               "For Zone Office WholeBuilding - Sm Office A  - Story Ground PSZ-AC: electric heating coil was found, cannot apply DX fan/economizer control.",
               "For Zone Office WholeBuilding - Sm Office A  - Story Ground PSZ-AC: DCV is not required since the system min oa flow is 56 cfm, less than the minimum of 3000 cfm.",
               "For Zone Office WholeBuilding - Sm Office A  - Story Ground PSZ-AC: DCV is not required since the system does not have an economizer.",
               "For Zone Office WholeBuilding - Sm Office A  - Story Ground PSZ-AC: Annual occupied hours = 2871 hr/yr, assuming a 0.15 occupancy threshold.  This schedule will be used as the HVAC operation schedule.",
               "For Zone Office WholeBuilding - Sm Office A  - Story Ground PSZ-AC: Motorized OA damper not required because the building has 1 stories, less than the minimum of 3 stories for climate zone ASHRAE 169-2013-5B.",
               "For Zone Office WholeBuilding - Sm Office A  - Story Ground: DCV is not required since the occupant density is 6 people/1000 ft2, but the minimum occupant density is 100 people/1000 ft2.",
               "For Zone Office WholeBuilding - Sm Office A  - Story Ground PSZ-AC: Optimum start is not required since design flow rate of 460 cfm is below the limit of 10000 cfm.",
               "For Zone Office WholeBuilding - Sm Office A end_a - Story Ground PSZ-AC, ERV not required based on 8% OA flow, design supply air flow of 289cfm, and climate zone ASHRAE 169-2013-5B.",
               "For Zone Office WholeBuilding - Sm Office A end_a - Story Ground PSZ-AC: non-integrated economizer per 6.5.1.3 exception b, DX system less than 65000Btu/hr.",
               "For Zone Office WholeBuilding - Sm Office A end_a - Story Ground PSZ-AC: electric heating coil was found, cannot apply DX fan/economizer control.",
               "For Zone Office WholeBuilding - Sm Office A end_a - Story Ground PSZ-AC: DCV is not required since the system min oa flow is 22 cfm, less than the minimum of 3000 cfm.",
               "For Zone Office WholeBuilding - Sm Office A end_a - Story Ground PSZ-AC: DCV is not required since the system does not have an economizer.",
               "For Zone Office WholeBuilding - Sm Office A end_a - Story Ground PSZ-AC: Annual occupied hours = 2871 hr/yr, assuming a 0.15 occupancy threshold.  This schedule will be used as the HVAC operation schedule.",
               "For Zone Office WholeBuilding - Sm Office A end_a - Story Ground PSZ-AC: Motorized OA damper not required because the building has 1 stories, less than the minimum of 3 stories for climate zone ASHRAE 169-2013-5B.",
               "For Zone Office WholeBuilding - Sm Office A end_a - Story Ground: DCV is not required since the occupant density is 6 people/1000 ft2, but the minimum occupant density is 100 people/1000 ft2.",
               "For Zone Office WholeBuilding - Sm Office A end_a - Story Ground PSZ-AC: Optimum start is not required since design flow rate of 289 cfm is below the limit of 10000 cfm.",
               "For Zone Office WholeBuilding - Sm Office A end_b - Story Ground PSZ-AC, ERV not required based on 9% OA flow, design supply air flow of 254cfm, and climate zone ASHRAE 169-2013-5B.",
               "For Zone Office WholeBuilding - Sm Office A end_b - Story Ground PSZ-AC: non-integrated economizer per 6.5.1.3 exception b, DX system less than 65000Btu/hr.",
               "For Zone Office WholeBuilding - Sm Office A end_b - Story Ground PSZ-AC: electric heating coil was found, cannot apply DX fan/economizer control.",
               "For Zone Office WholeBuilding - Sm Office A end_b - Story Ground PSZ-AC: DCV is not required since the system min oa flow is 22 cfm, less than the minimum of 3000 cfm.",
               "For Zone Office WholeBuilding - Sm Office A end_b - Story Ground PSZ-AC: DCV is not required since the system does not have an economizer.",
               "For Zone Office WholeBuilding - Sm Office A end_b - Story Ground PSZ-AC: Annual occupied hours = 2871 hr/yr, assuming a 0.15 occupancy threshold.  This schedule will be used as the HVAC operation schedule.",
               "For Zone Office WholeBuilding - Sm Office A end_b - Story Ground PSZ-AC: Motorized OA damper not required because the building has 1 stories, less than the minimum of 3 stories for climate zone ASHRAE 169-2013-5B.",
               "For Zone Office WholeBuilding - Sm Office A end_b - Story Ground: DCV is not required since the occupant density is 6 people/1000 ft2, but the minimum occupant density is 100 people/1000 ft2.",
               "For Zone Office WholeBuilding - Sm Office A end_b - Story Ground PSZ-AC: Optimum start is not required since design flow rate of 254 cfm is below the limit of 10000 cfm.",
               "For Zone Office WholeBuilding - Sm Office B  - Story Ground PSZ-AC, ERV not required based on 18% OA flow, design supply air flow of 310cfm, and climate zone ASHRAE 169-2013-5B.",
               "For Zone Office WholeBuilding - Sm Office B  - Story Ground PSZ-AC: non-integrated economizer per 6.5.1.3 exception b, DX system less than 65000Btu/hr.",
               "For Zone Office WholeBuilding - Sm Office B  - Story Ground PSZ-AC: electric heating coil was found, cannot apply DX fan/economizer control.",
               "For Zone Office WholeBuilding - Sm Office B  - Story Ground PSZ-AC: DCV is not required since the system min oa flow is 55 cfm, less than the minimum of 3000 cfm.",
               "For Zone Office WholeBuilding - Sm Office B  - Story Ground PSZ-AC: DCV is not required since the system does not have an economizer.",
               "For Zone Office WholeBuilding - Sm Office B  - Story Ground PSZ-AC: Annual occupied hours = 2871 hr/yr, assuming a 0.15 occupancy threshold.  This schedule will be used as the HVAC operation schedule.",
               "For Zone Office WholeBuilding - Sm Office B  - Story Ground PSZ-AC: Motorized OA damper not required because the building has 1 stories, less than the minimum of 3 stories for climate zone ASHRAE 169-2013-5B.",
               "For Zone Office WholeBuilding - Sm Office B  - Story Ground: DCV is not required since the occupant density is 6 people/1000 ft2, but the minimum occupant density is 100 people/1000 ft2.",
               "For Zone Office WholeBuilding - Sm Office B  - Story Ground PSZ-AC: Optimum start is not required since design flow rate of 310 cfm is below the limit of 10000 cfm.",
               "For Zone Office WholeBuilding - Sm Office B end_a - Story Ground PSZ-AC, ERV not required based on 9% OA flow, design supply air flow of 247cfm, and climate zone ASHRAE 169-2013-5B.",
               "For Zone Office WholeBuilding - Sm Office B end_a - Story Ground PSZ-AC: non-integrated economizer per 6.5.1.3 exception b, DX system less than 65000Btu/hr.",
               "For Zone Office WholeBuilding - Sm Office B end_a - Story Ground PSZ-AC: electric heating coil was found, cannot apply DX fan/economizer control.",
               "For Zone Office WholeBuilding - Sm Office B end_a - Story Ground PSZ-AC: DCV is not required since the system min oa flow is 22 cfm, less than the minimum of 3000 cfm.",
               "For Zone Office WholeBuilding - Sm Office B end_a - Story Ground PSZ-AC: DCV is not required since the system does not have an economizer.",
               "For Zone Office WholeBuilding - Sm Office B end_a - Story Ground PSZ-AC: Annual occupied hours = 2871 hr/yr, assuming a 0.15 occupancy threshold.  This schedule will be used as the HVAC operation schedule.",
               "For Zone Office WholeBuilding - Sm Office B end_a - Story Ground PSZ-AC: Motorized OA damper not required because the building has 1 stories, less than the minimum of 3 stories for climate zone ASHRAE 169-2013-5B.",
               "For Zone Office WholeBuilding - Sm Office B end_a - Story Ground: DCV is not required since the occupant density is 6 people/1000 ft2, but the minimum occupant density is 100 people/1000 ft2.",
               "For Zone Office WholeBuilding - Sm Office B end_a - Story Ground PSZ-AC: Optimum start is not required since design flow rate of 247 cfm is below the limit of 10000 cfm.",
               "For Zone Office WholeBuilding - Sm Office B end_b - Story Ground PSZ-AC, ERV not required based on 10% OA flow, design supply air flow of 213cfm, and climate zone ASHRAE 169-2013-5B.",
               "For Zone Office WholeBuilding - Sm Office B end_b - Story Ground PSZ-AC: non-integrated economizer per 6.5.1.3 exception b, DX system less than 65000Btu/hr.",
               "For Zone Office WholeBuilding - Sm Office B end_b - Story Ground PSZ-AC: electric heating coil was found, cannot apply DX fan/economizer control.",
               "For Zone Office WholeBuilding - Sm Office B end_b - Story Ground PSZ-AC: DCV is not required since the system min oa flow is 22 cfm, less than the minimum of 3000 cfm.",
               "For Zone Office WholeBuilding - Sm Office B end_b - Story Ground PSZ-AC: DCV is not required since the system does not have an economizer.",
               "For Zone Office WholeBuilding - Sm Office B end_b - Story Ground PSZ-AC: Annual occupied hours = 2871 hr/yr, assuming a 0.15 occupancy threshold.  This schedule will be used as the HVAC operation schedule.",
               "For Zone Office WholeBuilding - Sm Office B end_b - Story Ground PSZ-AC: Motorized OA damper not required because the building has 1 stories, less than the minimum of 3 stories for climate zone ASHRAE 169-2013-5B.",
               "For Zone Office WholeBuilding - Sm Office B end_b - Story Ground: DCV is not required since the occupant density is 6 people/1000 ft2, but the minimum occupant density is 100 people/1000 ft2.",
               "For Zone Office WholeBuilding - Sm Office B end_b - Story Ground PSZ-AC: Optimum start is not required since design flow rate of 213 cfm is below the limit of 10000 cfm.",
               "For Zone Office WholeBuilding - Sm Office C  - Story Ground PSZ-AC, ERV not required based on 15% OA flow, design supply air flow of 373cfm, and climate zone ASHRAE 169-2013-5B.",
               "For Zone Office WholeBuilding - Sm Office C  - Story Ground PSZ-AC: non-integrated economizer per 6.5.1.3 exception b, DX system less than 65000Btu/hr.",
               "For Zone Office WholeBuilding - Sm Office C  - Story Ground PSZ-AC: electric heating coil was found, cannot apply DX fan/economizer control.",
               "For Zone Office WholeBuilding - Sm Office C  - Story Ground PSZ-AC: DCV is not required since the system min oa flow is 56 cfm, less than the minimum of 3000 cfm.",
               "For Zone Office WholeBuilding - Sm Office C  - Story Ground PSZ-AC: DCV is not required since the system does not have an economizer.",
               "For Zone Office WholeBuilding - Sm Office C  - Story Ground PSZ-AC: Annual occupied hours = 2871 hr/yr, assuming a 0.15 occupancy threshold.  This schedule will be used as the HVAC operation schedule.",
               "For Zone Office WholeBuilding - Sm Office C  - Story Ground PSZ-AC: Motorized OA damper not required because the building has 1 stories, less than the minimum of 3 stories for climate zone ASHRAE 169-2013-5B.",
               "For Zone Office WholeBuilding - Sm Office C  - Story Ground: DCV is not required since the occupant density is 6 people/1000 ft2, but the minimum occupant density is 100 people/1000 ft2.",
               "For Zone Office WholeBuilding - Sm Office C  - Story Ground PSZ-AC: Optimum start is not required since design flow rate of 373 cfm is below the limit of 10000 cfm.",
               "For Zone Office WholeBuilding - Sm Office C end_a - Story Ground PSZ-AC, ERV not required based on 8% OA flow, design supply air flow of 272cfm, and climate zone ASHRAE 169-2013-5B.",
               "For Zone Office WholeBuilding - Sm Office C end_a - Story Ground PSZ-AC: non-integrated economizer per 6.5.1.3 exception b, DX system less than 65000Btu/hr.",
               "For Zone Office WholeBuilding - Sm Office C end_a - Story Ground PSZ-AC: electric heating coil was found, cannot apply DX fan/economizer control.",
               "For Zone Office WholeBuilding - Sm Office C end_a - Story Ground PSZ-AC: DCV is not required since the system min oa flow is 22 cfm, less than the minimum of 3000 cfm.",
               "For Zone Office WholeBuilding - Sm Office C end_a - Story Ground PSZ-AC: DCV is not required since the system does not have an economizer.",
               "For Zone Office WholeBuilding - Sm Office C end_a - Story Ground PSZ-AC: Annual occupied hours = 2871 hr/yr, assuming a 0.15 occupancy threshold.  This schedule will be used as the HVAC operation schedule.",
               "For Zone Office WholeBuilding - Sm Office C end_a - Story Ground PSZ-AC: Motorized OA damper not required because the building has 1 stories, less than the minimum of 3 stories for climate zone ASHRAE 169-2013-5B.",
               "For Zone Office WholeBuilding - Sm Office C end_a - Story Ground: DCV is not required since the occupant density is 6 people/1000 ft2, but the minimum occupant density is 100 people/1000 ft2.",
               "For Zone Office WholeBuilding - Sm Office C end_a - Story Ground PSZ-AC: Optimum start is not required since design flow rate of 272 cfm is below the limit of 10000 cfm.",
               "For Zone Office WholeBuilding - Sm Office C end_b - Story Ground PSZ-AC, ERV not required based on 10% OA flow, design supply air flow of 230cfm, and climate zone ASHRAE 169-2013-5B.",
               "For Zone Office WholeBuilding - Sm Office C end_b - Story Ground PSZ-AC: non-integrated economizer per 6.5.1.3 exception b, DX system less than 65000Btu/hr.",
               "For Zone Office WholeBuilding - Sm Office C end_b - Story Ground PSZ-AC: electric heating coil was found, cannot apply DX fan/economizer control.",
[...]
               },
               {
                  "name" : "airVelocitySchedule",
                  "value" : "{30c08409-2277-4402-9874-97cb6b80f76e}"
               },
               {
                  "name" : "reporting_frequency",
                  "value" : "Timestep"
               }
            ],
            "step_warnings" : []
         }
      },
      {
         "arguments" : {
            "__SKIP__" : false,
            "material_cost_ip" : 100
         },
         "measure_dir_name" : "AddCostPerFloorAreaToBuilding",
         "result" : {
            "completed_at" : "20200323T045836Z",
            "measure_class_name" : "AddCostPerFloorAreaToBuilding",
            "measure_display_name" : "Add Cost per Floor Area to Building",
            "measure_name" : "add_cost_per_floor_area_to_building",
            "measure_taxonomy" : "Economics.Life Cycle Cost Analysis",
            "measure_type" : "ModelMeasure",
            "measure_uid" : "153992bb-0202-424b-9fbb-57fcf0285e65",
            "measure_version_id" : "dbb67154-b9ea-4410-870f-14e96e0966dd",
            "measure_version_modified" : "20200229T024317Z",
            "measure_xml_checksum" : "35DA4ED3",
            "started_at" : "20200323T045836Z",
            "stderr" : "",
            "stdout" : "",
            "step_errors" : [],
            "step_files" : [],
            "step_final_condition" : "A new lifecycle cost object was added to the building. The building has an area of 3,000 (ft^2). Material and Installation costs are $300,000.",
            "step_info" : [],
            "step_initial_condition" : "The Building has 0 lifecycle cost objects.",
            "step_result" : "Success",
            "step_values" : [
               {
                  "name" : "remove_costs",
                  "value" : true
               },
               {
                  "name" : "lcc_name",
                  "value" : "Building - Life Cycle Costs"
               },
               {
                  "name" : "material_cost_ip",
                  "value" : 100
               },
               {
                  "name" : "demolition_cost_ip",
                  "value" : 0
               },
               {
                  "name" : "years_until_costs_start",
                  "value" : 0
               },
               {
                  "name" : "demo_cost_initial_const",
                  "value" : false
               },
               {
                  "name" : "expected_life",
                  "value" : 20
               },
               {
                  "name" : "om_cost_ip",
                  "value" : 0
               },
               {
                  "name" : "om_frequency",
                  "value" : 1
               }
            ],
            "step_warnings" : []
         }
      },
      {
         "arguments" : {
            "demand_window_length" : "FullHour",
            "distclg_rate" : 0.20000000000000001,
            "disthtg_rate" : 0.20000000000000001,
            "elec_demand_rate" : 12,
            "elec_monthly_rate" : 120,
            "elec_rate" : 0.12,
            "gas_monthly_rate" : 50,
            "gas_rate" : 0.5,
            "water_rate" : 0.0050000000000000001
         },
         "measure_dir_name" : "tariff_selection_flat",
         "result" : {
            "completed_at" : "20200323T045837Z",
            "measure_class_name" : "TariffSelectionFlat",
            "measure_display_name" : "Tariff Selection-Flat",
            "measure_name" : "tariff_selection_flat",
            "measure_taxonomy" : "Economics.Life Cycle Cost Analysis",
            "measure_type" : "EnergyPlusMeasure",
            "measure_uid" : "539c3e8e-6c41-4f50-ac61-6cbbf1ee1b55",
            "measure_version_id" : "7301b532-f622-4b51-90e8-765d3de524cf",
            "measure_version_modified" : "20200229T024321Z",
            "measure_xml_checksum" : "FBDC6D11",
            "started_at" : "20200323T045837Z",
            "stderr" : "",
            "stdout" : "",
            "step_errors" : [],
            "step_files" : [],
            "step_final_condition" : "The model finished with 5 tariff objects.",
            "step_info" : [
               "The demand window length of a FullHour is compatible with the current setting of 1 timesteps per hour."
            ],
            "step_initial_condition" : "The model started with 0 tariff objects.",
            "step_result" : "Success",
            "step_values" : [
               {
                  "name" : "demand_window_length",
                  "value" : "FullHour"
               },
               {
                  "name" : "elec_rate",
                  "value" : 0.12
               },
               {
                  "name" : "elec_demand_rate",
                  "value" : 12
               },
               {
                  "name" : "elec_monthly_rate",
                  "value" : 120
               },
               {
                  "name" : "gas_rate",
                  "value" : 0.5
               },
               {
                  "name" : "gas_monthly_rate",
                  "value" : 50
               },
               {
                  "name" : "water_rate",
                  "value" : 0.0050000000000000001
               },
               {
                  "name" : "disthtg_rate",
                  "value" : 0.20000000000000001
               },
               {
                  "name" : "distclg_rate",
                  "value" : 0.20000000000000001
               }
            ],
            "step_warnings" : []
         }
      },
      {
         "arguments" : {
            "feature_id" : "3",
            "feature_name" : "Building 3",
            "feature_type" : "Building"
         },
         "measure_dir_name" : "default_feature_reports",
         "result" : {
            "completed_at" : "20200323T045844Z",
            "measure_class_name" : "DefaultFeatureReports",
            "measure_display_name" : "DefaultFeatureReports",
            "measure_name" : "default_feature_reports",
            "measure_taxonomy" : "Reporting.QAQC",
            "measure_type" : "ReportingMeasure",
            "measure_uid" : "9ee3135a-8070-4408-bfa1-b75fecf9dd4f",
            "measure_version_id" : "607df4a0-d1ff-4c14-8d2f-93cde078dc47",
            "measure_version_modified" : "20200308T020104Z",
            "measure_xml_checksum" : "FB304155",
            "started_at" : "20200323T045843Z",
            "stderr" : "",
            "stdout" : "",
            "step_errors" : [],
            "step_files" : [
               "C:/gitrepos/urbanopt-scenario-gem/spec/test/example_scenario/3/007_default_feature_reports/default_feature_reports.csv",
               "C:/gitrepos/urbanopt-scenario-gem/spec/test/example_scenario/3/007_default_feature_reports/default_feature_reports.json"
            ],
            "step_final_condition" : "Default Feature Reports generated successfully.",
            "step_info" : [
               "All timeseries: [\"Electricity:Facility\", \"ElectricityProduced:Facility\", \"Gas:Facility\", \"DistrictCooling:Facility\", \"DistrictHeating:Facility\", \"District Cooling Chilled Water Rate\", \"District Cooling Mass Flow Rate\", \"District Cooling Inlet Temperature\", \"District Cooling Outlet Temperature\", \"District Heating Hot Water Rate\", \"District Heating Mass Flow Rate\", \"District Heating Inlet Temperature\", \"District Heating Outlet Temperature\", \"Zone Thermal Comfort Fanger Model PMV\", \"Zone Thermal Comfort Fanger Model PPD\", \"Net Electric Energy\", \"Electricity:Facility Power\", \"ElectricityProduced:Facility Power\", \"Electricity:Facility Apparent Power\", \"ElectricityProduced:Facility Apparent Power\", \"Net Power\", \"Net Apparent Power\"]",
               "TIMESERIES: Electricity:Facility",
               "KEY VALUES: [\"\"]",
               "!! TIMESERIES NAME: Electricity:Facility AND key_value: ",
               "First timeseries",
               "TIMESERIES: ElectricityProduced:Facility",
               "KEY VALUES: []",
               "!! TIMESERIES NAME: ElectricityProduced:Facility AND key_value: ",
               "Is NOT Initialized",
               "TIMESERIES: Gas:Facility",
               "KEY VALUES: [\"\"]",
               "!! TIMESERIES NAME: Gas:Facility AND key_value: ",
               "Is Initialized",
               "TIMESERIES: DistrictCooling:Facility",
               "KEY VALUES: []",
               "!! TIMESERIES NAME: DistrictCooling:Facility AND key_value: ",
               "Is NOT Initialized",
               "TIMESERIES: DistrictHeating:Facility",
               "KEY VALUES: []",
               "!! TIMESERIES NAME: DistrictHeating:Facility AND key_value: ",
               "Is NOT Initialized",
               "TIMESERIES: District Cooling Chilled Water Rate",
               "KEY VALUES: []",
               "!! TIMESERIES NAME: District Cooling Chilled Water Rate AND key_value: ",
               "Is NOT Initialized",
               "TIMESERIES: District Cooling Mass Flow Rate",
               "KEY VALUES: []",
               "!! TIMESERIES NAME: District Cooling Mass Flow Rate AND key_value: ",
               "Is NOT Initialized",
               "TIMESERIES: District Cooling Inlet Temperature",
               "KEY VALUES: []",
               "!! TIMESERIES NAME: District Cooling Inlet Temperature AND key_value: ",
               "Is NOT Initialized",
               "TIMESERIES: District Cooling Outlet Temperature",
               "KEY VALUES: []",
               "!! TIMESERIES NAME: District Cooling Outlet Temperature AND key_value: ",
               "Is NOT Initialized",
               "TIMESERIES: District Heating Hot Water Rate",
               "KEY VALUES: []",
               "!! TIMESERIES NAME: District Heating Hot Water Rate AND key_value: ",
               "Is NOT Initialized",
               "TIMESERIES: District Heating Mass Flow Rate",
               "KEY VALUES: []",
               "!! TIMESERIES NAME: District Heating Mass Flow Rate AND key_value: ",
               "Is NOT Initialized",
               "TIMESERIES: District Heating Inlet Temperature",
               "KEY VALUES: []",
               "!! TIMESERIES NAME: District Heating Inlet Temperature AND key_value: ",
               "Is NOT Initialized",
               "TIMESERIES: District Heating Outlet Temperature",
               "KEY VALUES: []",
               "!! TIMESERIES NAME: District Heating Outlet Temperature AND key_value: ",
               "Is NOT Initialized",
               "TIMESERIES: Zone Thermal Comfort Fanger Model PMV",
               "KEY VALUES: [\"ZONE OFFICE WHOLEBUILDING - SM OFFICE A  - STORY GROUND OFFICE WHOLEBUILDING - SM OFFICE PEOPLE\", \"ZONE OFFICE WHOLEBUILDING - SM OFFICE A END_A - STORY GROUND OFFICE WHOLEBUILDING - SM OFFICE PEOPLE\", \"ZONE OFFICE WHOLEBUILDING - SM OFFICE A END_B - STORY GROUND OFFICE WHOLEBUILDING - SM OFFICE PEOPLE\", \"ZONE OFFICE WHOLEBUILDING - SM OFFICE B  - STORY GROUND OFFICE WHOLEBUILDING - SM OFFICE PEOPLE\", \"ZONE OFFICE WHOLEBUILDING - SM OFFICE B END_A - STORY GROUND OFFICE WHOLEBUILDING - SM OFFICE PEOPLE\", \"ZONE OFFICE WHOLEBUILDING - SM OFFICE B END_B - STORY GROUND OFFICE WHOLEBUILDING - SM OFFICE PEOPLE\", \"ZONE OFFICE WHOLEBUILDING - SM OFFICE C  - STORY GROUND OFFICE WHOLEBUILDING - SM OFFICE PEOPLE\", \"ZONE OFFICE WHOLEBUILDING - SM OFFICE C END_A - STORY GROUND OFFICE WHOLEBUILDING - SM OFFICE PEOPLE\", \"ZONE OFFICE WHOLEBUILDING - SM OFFICE C END_B - STORY GROUND OFFICE WHOLEBUILDING - SM OFFICE PEOPLE\"]",
               "!! TIMESERIES NAME: Zone Thermal Comfort Fanger Model PMV AND key_value: ZONE OFFICE WHOLEBUILDING - SM OFFICE A  - STORY GROUND OFFICE WHOLEBUILDING - SM OFFICE PEOPLE",
               "Is Initialized",
               "SETTING UP NEW ARRAY FOR: Zone Thermal Comfort Fanger Model PMV",
               "!! TIMESERIES NAME: Zone Thermal Comfort Fanger Model PMV AND key_value: ZONE OFFICE WHOLEBUILDING - SM OFFICE A END_A - STORY GROUND OFFICE WHOLEBUILDING - SM OFFICE PEOPLE",
               "Is Initialized",
               "!! TIMESERIES NAME: Zone Thermal Comfort Fanger Model PMV AND key_value: ZONE OFFICE WHOLEBUILDING - SM OFFICE A END_B - STORY GROUND OFFICE WHOLEBUILDING - SM OFFICE PEOPLE",
               "Is Initialized",
               "!! TIMESERIES NAME: Zone Thermal Comfort Fanger Model PMV AND key_value: ZONE OFFICE WHOLEBUILDING - SM OFFICE B  - STORY GROUND OFFICE WHOLEBUILDING - SM OFFICE PEOPLE",
               "Is Initialized",
               "!! TIMESERIES NAME: Zone Thermal Comfort Fanger Model PMV AND key_value: ZONE OFFICE WHOLEBUILDING - SM OFFICE B END_A - STORY GROUND OFFICE WHOLEBUILDING - SM OFFICE PEOPLE",
               "Is Initialized",
               "!! TIMESERIES NAME: Zone Thermal Comfort Fanger Model PMV AND key_value: ZONE OFFICE WHOLEBUILDING - SM OFFICE B END_B - STORY GROUND OFFICE WHOLEBUILDING - SM OFFICE PEOPLE",
               "Is Initialized",
               "!! TIMESERIES NAME: Zone Thermal Comfort Fanger Model PMV AND key_value: ZONE OFFICE WHOLEBUILDING - SM OFFICE C  - STORY GROUND OFFICE WHOLEBUILDING - SM OFFICE PEOPLE",
               "Is Initialized",
               "!! TIMESERIES NAME: Zone Thermal Comfort Fanger Model PMV AND key_value: ZONE OFFICE WHOLEBUILDING - SM OFFICE C END_A - STORY GROUND OFFICE WHOLEBUILDING - SM OFFICE PEOPLE",
               "Is Initialized",
               "!! TIMESERIES NAME: Zone Thermal Comfort Fanger Model PMV AND key_value: ZONE OFFICE WHOLEBUILDING - SM OFFICE C END_B - STORY GROUND OFFICE WHOLEBUILDING - SM OFFICE PEOPLE",
               "Is Initialized",
               "timeseries Zone Thermal Comfort Fanger Model PMV: hours out of bounds: 0.0",
               "TIMESERIES: Zone Thermal Comfort Fanger Model PPD",
               "KEY VALUES: [\"ZONE OFFICE WHOLEBUILDING - SM OFFICE A  - STORY GROUND OFFICE WHOLEBUILDING - SM OFFICE PEOPLE\", \"ZONE OFFICE WHOLEBUILDING - SM OFFICE A END_A - STORY GROUND OFFICE WHOLEBUILDING - SM OFFICE PEOPLE\", \"ZONE OFFICE WHOLEBUILDING - SM OFFICE A END_B - STORY GROUND OFFICE WHOLEBUILDING - SM OFFICE PEOPLE\", \"ZONE OFFICE WHOLEBUILDING - SM OFFICE B  - STORY GROUND OFFICE WHOLEBUILDING - SM OFFICE PEOPLE\", \"ZONE OFFICE WHOLEBUILDING - SM OFFICE B END_A - STORY GROUND OFFICE WHOLEBUILDING - SM OFFICE PEOPLE\", \"ZONE OFFICE WHOLEBUILDING - SM OFFICE B END_B - STORY GROUND OFFICE WHOLEBUILDING - SM OFFICE PEOPLE\", \"ZONE OFFICE WHOLEBUILDING - SM OFFICE C  - STORY GROUND OFFICE WHOLEBUILDING - SM OFFICE PEOPLE\", \"ZONE OFFICE WHOLEBUILDING - SM OFFICE C END_A - STORY GROUND OFFICE WHOLEBUILDING - SM OFFICE PEOPLE\", \"ZONE OFFICE WHOLEBUILDING - SM OFFICE C END_B - STORY GROUND OFFICE WHOLEBUILDING - SM OFFICE PEOPLE\"]",
               "!! TIMESERIES NAME: Zone Thermal Comfort Fanger Model PPD AND key_value: ZONE OFFICE WHOLEBUILDING - SM OFFICE A  - STORY GROUND OFFICE WHOLEBUILDING - SM OFFICE PEOPLE",
               "Is Initialized",
               "SETTING UP NEW ARRAY FOR: Zone Thermal Comfort Fanger Model PPD",
               "!! TIMESERIES NAME: Zone Thermal Comfort Fanger Model PPD AND key_value: ZONE OFFICE WHOLEBUILDING - SM OFFICE A END_A - STORY GROUND OFFICE WHOLEBUILDING - SM OFFICE PEOPLE",
               "Is Initialized",
               "!! TIMESERIES NAME: Zone Thermal Comfort Fanger Model PPD AND key_value: ZONE OFFICE WHOLEBUILDING - SM OFFICE A END_B - STORY GROUND OFFICE WHOLEBUILDING - SM OFFICE PEOPLE",
               "Is Initialized",
               "!! TIMESERIES NAME: Zone Thermal Comfort Fanger Model PPD AND key_value: ZONE OFFICE WHOLEBUILDING - SM OFFICE B  - STORY GROUND OFFICE WHOLEBUILDING - SM OFFICE PEOPLE",
               "Is Initialized",
               "!! TIMESERIES NAME: Zone Thermal Comfort Fanger Model PPD AND key_value: ZONE OFFICE WHOLEBUILDING - SM OFFICE B END_A - STORY GROUND OFFICE WHOLEBUILDING - SM OFFICE PEOPLE",
               "Is Initialized",
               "!! TIMESERIES NAME: Zone Thermal Comfort Fanger Model PPD AND key_value: ZONE OFFICE WHOLEBUILDING - SM OFFICE B END_B - STORY GROUND OFFICE WHOLEBUILDING - SM OFFICE PEOPLE",
               "Is Initialized",
               "!! TIMESERIES NAME: Zone Thermal Comfort Fanger Model PPD AND key_value: ZONE OFFICE WHOLEBUILDING - SM OFFICE C  - STORY GROUND OFFICE WHOLEBUILDING - SM OFFICE PEOPLE",
               "Is Initialized",
               "!! TIMESERIES NAME: Zone Thermal Comfort Fanger Model PPD AND key_value: ZONE OFFICE WHOLEBUILDING - SM OFFICE C END_A - STORY GROUND OFFICE WHOLEBUILDING - SM OFFICE PEOPLE",
               "Is Initialized",
               "!! TIMESERIES NAME: Zone Thermal Comfort Fanger Model PPD AND key_value: ZONE OFFICE WHOLEBUILDING - SM OFFICE C END_B - STORY GROUND OFFICE WHOLEBUILDING - SM OFFICE PEOPLE",
               "Is Initialized",
               "timeseries Zone Thermal Comfort Fanger Model PPD: hours out of bounds: 0.0",
               "TIMESERIES: Net Electric Energy",
               "KEY VALUES: []",
               "!! TIMESERIES NAME: Net Electric Energy AND key_value: ",
               "Is NOT Initialized",
               "TIMESERIES: Electricity:Facility Power",
               "KEY VALUES: []",
               "!! TIMESERIES NAME: Electricity:Facility Power AND key_value: ",
               "Is NOT Initialized",
               "timeseries_name: Electricity:Facility Power, key: Electricity:Facility",
               "TIMESERIES: ElectricityProduced:Facility Power",
               "KEY VALUES: []",
               "!! TIMESERIES NAME: ElectricityProduced:Facility Power AND key_value: ",
               "Is NOT Initialized",
               "timeseries_name: ElectricityProduced:Facility Power, key: ElectricityProduced:Facility",
               "TIMESERIES: Electricity:Facility Apparent Power",
               "KEY VALUES: []",
               "!! TIMESERIES NAME: Electricity:Facility Apparent Power AND key_value: ",
               "Is NOT Initialized",
               "timeseries_name: Electricity:Facility Apparent Power, key: Electricity:Facility",
               "TIMESERIES: ElectricityProduced:Facility Apparent Power",
               "KEY VALUES: []",
               "!! TIMESERIES NAME: ElectricityProduced:Facility Apparent Power AND key_value: ",
               "Is NOT Initialized",
               "timeseries_name: ElectricityProduced:Facility Apparent Power, key: ElectricityProduced:Facility",
               "TIMESERIES: Net Power",
               "KEY VALUES: []",
               "!! TIMESERIES NAME: Net Power AND key_value: ",
               "Is NOT Initialized",
               "Power calc",
               "TIMESERIES: Net Apparent Power",
               "KEY VALUES: []",
               "!! TIMESERIES NAME: Net Apparent Power AND key_value: ",
               "Is NOT Initialized",
               "new final_timeseries_names size: 39"
            ],
            "step_result" : "Success",
            "step_values" : [
               {
                  "name" : "feature_id",
                  "value" : "3"
               },
               {
                  "name" : "feature_name",
                  "value" : "Building 3"
               },
               {
                  "name" : "feature_type",
                  "value" : "Building"
               },
               {
                  "name" : "reporting_frequency",
                  "value" : "Timestep"
               }
            ],
            "step_warnings" : []
         }
      }
   ],
   "updated_at" : "20200323T045846Z",
   "weather_file" : null
}
